13
gdb 3679	3.81551	3.30458	1.79043	1.9014	55.4	-0.2139	0.0323	0.2462	669.7796	0.103164	-340.663379	-340.656699	-340.655755	-340.694003	24.129	
C	-0.0574810401	 1.5661593516	-0.0193440332	-0.505457
C	-0.0090612808	 0.0713542037	-0.0237307621	 0.128706
C	-0.1255475564	-0.8064105107	-1.0830294108	-0.104652
N	-0.0153484605	-2.0605769166	-0.5854080436	-0.200541
N	 0.1695685887	-2.0757900902	 0.7590412065	-0.334232
C	 0.1718533921	-0.7927981578	 1.0846723961	 0.356433
O	 0.3333257482	-0.377677033	 2.3608287854	-0.428498
H	 0.8702064167	 1.9989952958	 0.371610977	 0.133019
H	-0.2083301874	 1.957485296	-1.0292462233	 0.118143
H	-0.872038798	 1.9419358358	 0.6099402516	 0.133019
H	-0.2762659529	-0.6245558965	-2.1362275514	 0.129483
H	-0.0557503279	-2.9327069475	-1.0809178174	 0.272866
H	 0.4360906183	-1.1683796307	 2.9048151452	 0.301712
73.5069	235.0074	242.3026	315.516	374.162	419.6753	468.8604	638.0487	647.6232	729.6504	757.9957	792.0925	936.785	1005.4015	1067.9711	1083.5215	1135.4031	1249.4076	1266.278	1327.7721	1422.0756	1445.2108	1480.5457	1488.8506	1501.3137	1566.7579	1644.9715	3029.9978	3079.1819	3109.3554	3252.6262	3697.9721	3798.0624
CC1=CNN=C1O	Cc1c[nH]nc1O	
InChI=1S/C4H6N2O/c1-3-2-5-6-4(3)7/h2H,1H3,(H2,5,6,7)	InChI=1S/C4H6N2O/c1-3-2-5-6-4(3)7/h2H,1H3,(H2,5,6,7)
