15
gdb 4042	6.10961	0.84856	0.74853	0.5351	83.3	-0.2196	-0.0621	0.1575	1410.0958	0.112126	-453.881344	-453.873141	-453.872196	-453.914254	30.721	
O	-0.1242263047	 1.3121563957	 0.0085303462	-0.389898
N	 0.0032472284	-0.0832752649	 0.0039425576	-0.227741
C	-1.1385997456	-0.6616717076	 0.0114312298	 0.370808
C	-1.2669815639	-2.1752808575	 0.0085616413	-0.391508
C	-2.7727054419	-2.3757123678	 0.01972596	 0.370808
C	-3.4122556601	-1.0625968404	 0.0281748908	-0.150148
C	-2.4806901663	-0.0854621632	 0.0234442629	-0.150149
N	-3.2959684081	-3.5438767534	 0.0206910492	-0.227741
O	-4.6958553961	-3.4830982086	 0.0317490451	-0.389898
H	 0.7945216393	 1.6005164412	 0.0020454918	 0.310134
H	-0.8045582197	-2.6204270462	-0.8770360412	 0.148491
H	-0.7909617413	-2.6248602633	 0.8846723666	 0.148492
H	-4.4845562251	-0.9311516452	 0.0369003227	 0.134108
H	-2.6631249646	 0.9793770094	 0.0276517783	 0.134108
H	-4.9400618804	-4.4145779882	 0.031176399	 0.310134
61.474	180.2116	247.7362	268.4719	272.7975	282.6199	380.4703	389.6052	418.3231	507.4271	610.76	676.6307	697.7184	727.7049	850.2485	861.151	873.6894	954.1748	984.8557	992.1887	992.794	1101.9098	1158.8435	1219.3834	1259.6556	1271.6875	1365.7433	1402.3002	1410.3677	1454.9495	1597.7938	1715.2841	1720.583	3065.0946	3102.5143	3238.6654	3257.3983	3821.6802	3822.5086
ON=C1CC(C=C1)=NO	ON=C1CC(=NO)C=C1	
InChI=1S/C5H6N2O2/c8-6-4-1-2-5(3-4)7-9/h1-2,8-9H,3H2	InChI=1S/C5H6N2O2/c8-6-4-1-2-5(3-4)7-9/h1-2,8-9H,3H2
