17
gdb 4917	6.35758	1.26646	1.07575	2.6	72.76	-0.1729	0.0434	0.2163	1110.1914	0.143224	-360.085305	-360.076851	-360.075907	-360.118671	30.273	
C	 0.0822557065	 1.3686903281	 0.1417658057	-0.321637
N	-0.1919890067	-0.0265468154	-0.1338767201	-0.370927
C	 0.5412454479	-0.6458167246	-1.1365532801	 0.321509
C	 1.236890362	-0.0875382746	-2.1831877614	-0.204518
N	 1.7209163971	-1.1790830285	-2.8985434523	-0.278936
C	 1.3192137391	-2.3090681844	-2.2606211537	 0.348885
C	 1.6575542383	-3.6848347001	-2.7302092307	-0.498932
N	 0.6037575567	-2.0191409033	-1.1904851816	-0.363876
H	 1.1450456769	 1.5785311295	 0.3502185741	 0.103657
H	-0.2149257057	 1.9828155497	-0.7166576668	 0.125247
H	-0.5134140355	 1.6926185789	 0.9984302962	 0.120796
H	-0.2568174574	-0.6135104504	 0.6855668996	 0.236954
H	 1.4238128802	 0.9262736497	-2.4891196117	 0.113037
H	 2.2797886782	-1.1331399196	-3.7329563544	 0.256252
H	 2.7405263163	-3.8521491956	-2.7652620782	 0.127793
H	 1.2207736832	-4.4061533951	-2.0386084587	 0.155197
H	 1.260313503	-3.8846793443	-3.7323059759	 0.129498
46.4534	88.2625	168.9128	202.5409	236.5198	314.5337	344.8584	460.1478	477.5654	553.5999	616.4485	667.8819	694.0127	733.5683	749.817	972.8125	996.4598	1039.4365	1059.911	1101.591	1110.8357	1158.9074	1171.1024	1271.6301	1292.6055	1364.8607	1411.2813	1452.3283	1459.9531	1479.0336	1483.6746	1493.9148	1512.461	1522.1112	1584.2148	1639.3918	2960.585	3027.8929	3049.8827	3075.5748	3115.2518	3148.1903	3289.1898	3595.3346	3672.4041
CNC1=CNC(C)=N1	CNc1c[nH]c(C)n1	
InChI=1S/C5H9N3/c1-4-7-3-5(6-2)8-4/h3,6H,1-2H3,(H,7,8)	InChI=1S/C5H9N3/c1-4-7-3-5(6-2)8-4/h3,6H,1-2H3,(H,7,8)
