16
gdb 1520	7.06321	1.36106	1.27189	2.2518	58.55	-0.2487	0.0639	0.3125	985.298	0.135762	-362.960595	-362.951948	-362.951004	-362.994963	28.628	
C	 0.4419903745	 1.28492902	 0.0539377499	-0.370716
C	-0.459367717	 0.0762229165	-0.2122491781	-0.142387
N	-0.0847604262	-0.6741360191	-1.3978233783	-0.358885
C	 0.6826303639	-1.795558842	-1.3296318152	 0.521148
O	 1.0296220606	-2.3598919912	-0.3150041826	-0.417624
O	 0.9986952326	-2.2129794364	-2.5848615711	-0.267008
C	 1.7817186132	-3.4064521087	-2.6329448565	-0.23095
H	 1.4770336714	 0.9656162489	 0.2059269929	 0.134365
H	 0.420634448	 1.9895284745	-0.7845926094	 0.111008
H	 0.1110585219	 1.8193993033	 0.9502890808	 0.118332
H	-0.4090532987	-0.6251969581	 0.6233295384	 0.147128
H	-1.5029468976	 0.3956654551	-0.3150525679	 0.105688
H	-0.2156415825	-0.2654392295	-2.3087592362	 0.249184
H	 2.7283651656	-3.2748845909	-2.1023325554	 0.137082
H	 1.2439269251	-4.2457263458	-2.1837184649	 0.136897
H	 1.9638673352	-3.5979498067	-3.6911407163	 0.126737
30.0756	73.1001	87.8728	153.4809	196.8285	268.2605	346.4689	392.6443	469.3204	512.2388	685.6549	780.6602	793.5088	905.2412	944.5341	1047.0369	1099.4258	1164.6473	1183.2691	1185.8029	1214.7881	1254.3101	1329.109	1395.2974	1410.1536	1467.5745	1479.7969	1480.4527	1492.5823	1501.5038	1502.3589	1552.4931	1815.6828	3034.3557	3039.3278	3047.5963	3097.4027	3115.2285	3119.9937	3126.4575	3149.8562	3646.4183
CCNC(=O)OC	CCNC(=O)OC	
InChI=1S/C4H9NO2/c1-3-5-4(6)7-2/h3H2,1-2H3,(H,5,6)	InChI=1S/C4H9NO2/c1-3-5-4(6)7-2/h3H2,1-2H3,(H,5,6)
