11
gdb 4382	4.15023	2.06758	1.38006	2.7202	53.79	-0.281	-0.0412	0.2398	791.4893	0.075665	-430.799201	-430.793428	-430.792483	-430.829182	21.71	
O	 0.1228272338	 1.2745937734	-0.0367463394	-0.374932
C	 0.0814578032	-0.055688007	-0.0305745535	 0.465977
N	-0.038224152	-0.6466333889	-1.2178764229	-0.29172
C	-0.0735978525	-1.9752865958	-1.1411984292	 0.082504
N	-0.0034210045	-2.7205680606	-0.0402523262	-0.29172
C	 0.1140533698	-2.0007367866	 1.0738694446	 0.465977
O	 0.1893557923	-2.686167227	 2.2122515534	-0.374932
N	 0.1627309049	-0.6690881888	 1.1521868454	-0.44103
H	 0.2101189649	 1.5585825328	 0.8840826038	 0.310619
H	-0.1705955191	-2.5114065345	-2.0825016261	 0.138639
H	 0.2705782194	-2.0387679211	 2.9267250767	 0.310619
193.5615	208.8644	373.4562	470.8459	534.2581	580.7782	589.2346	595.492	618.2583	776.9437	846.3836	852.7296	998.2918	1030.66	1043.6138	1195.428	1221.2246	1318.6069	1366.7676	1392.7201	1501.0299	1517.7284	1612.9281	1653.4854	3170.3346	3773.6865	3775.5657
OC1=NC=NC(O)=N1	Oc1ncnc(O)n1	
InChI=1S/C3H3N3O2/c7-2-4-1-5-3(8)6-2/h1H,(H2,4,5,6,7,8)	InChI=1S/C3H3N3O2/c7-2-4-1-5-3(8)6-2/h1H,(H2,4,5,6,7,8)
