17
gdb 3060	8.3291	1.04438	0.99503	0.1881	74.89	-0.2264	0.0559	0.2823	1217.8093	0.147771	-272.55058	-272.542466	-272.541522	-272.584403	28.446	
C	 0.3628787188	 1.3583083184	 0.2623798435	-0.361847
C	-0.3615520828	 0.1265790946	-0.3110036825	-0.312924
C	 0.3515393126	-0.4989010533	-1.42012274	 0.065834
C	 0.9583472144	-0.998672471	-2.33473052	 0.06472
C	 1.6694534427	-1.5970781891	-3.427986896	-0.151647
C	 3.1899232127	-1.6327474257	-3.4287116609	-0.251699
C	 2.4201157617	-2.9053318028	-3.2330296809	-0.251666
H	 1.3540830295	 1.0866840403	 0.6359017999	 0.124862
H	 0.4923135932	 2.125182776	-0.506229914	 0.126708
H	-0.2102884574	 1.7902361635	 1.0885564836	 0.111152
H	-0.5161016053	-0.6106628419	 0.4879597686	 0.124845
H	-1.3661294868	 0.4173818557	-0.6451546179	 0.12661
H	 1.2060801817	-1.466260346	-4.4020015835	 0.105893
H	 3.6909005562	-1.468811257	-4.3762063765	 0.115625
H	 3.6915898703	-1.2032334371	-2.5698936912	 0.123796
H	 2.3984965249	-3.3406363327	-2.2411735292	 0.12406
H	 2.3879705534	-3.6233720019	-4.0448213029	 0.115676
19.183	94.2161	120.895	213.8744	224.5037	328.1016	426.375	497.9468	546.7477	666.7237	784.1151	792.336	820.6044	879.3167	897.1744	964.5227	1057.4335	1062.2326	1079.3453	1088.0538	1103.3483	1119.302	1183.4039	1201.2092	1230.329	1286.6172	1351.0145	1393.8629	1408.3226	1467.4175	1474.5355	1494.3865	1497.6853	1505.6479	2361.4147	3015.1656	3041.2176	3042.2298	3114.7014	3121.8254	3138.9804	3139.4213	3145.2963	3223.9315	3239.1581
CCC#CC1CC1	CCC#CC1CC1	
InChI=1S/C7H10/c1-2-3-4-7-5-6-7/h7H,2,5-6H2,1H3	InChI=1S/C7H10/c1-2-3-4-7-5-6-7/h7H,2,5-6H2,1H3
