23
gdb 1130	4.07049	1.34846	1.28363	0.0889	77.99	-0.2993	0.0791	0.3784	1110.9484	0.216054	-276.20592	-276.196248	-276.195304	-276.240153	35.464	
C	-0.0772092061	 1.5872649928	 0.0683205179	-0.386275
C	 0.0278318654	 0.0557722756	 0.0372688367	 0.032667
C	 0.8700052779	-0.4486934003	 1.2177022563	-0.380593
C	-1.3798136738	-0.5702081081	 0.0075281564	-0.150597
C	-1.4668617425	-2.1000869758	-0.1539868494	 0.032667
C	-2.9261837765	-2.5608336453	-0.0292335363	-0.386275
C	-0.861749551	-2.5860548358	-1.4786890776	-0.380591
H	 0.9133118472	 2.0542121368	 0.0529750227	 0.106442
H	-0.640774585	 1.9663625746	-0.7908423239	 0.107728
H	-0.5894223424	 1.927327356	 0.9767689988	 0.109582
H	 0.5480694518	-0.2181142418	-0.8906178466	 0.072845
H	 0.378320232	-0.2224102416	 2.1719532792	 0.109099
H	 1.0342520631	-1.529539511	 1.1769581296	 0.113291
H	 1.8535629284	 0.032887765	 1.2305781109	 0.107584
H	-1.9003314771	-0.2867670881	 0.9340156822	 0.082927
H	-1.950919076	-0.106469467	-0.8100539897	 0.082927
H	-0.9046533556	-2.5672105935	 0.6659814205	 0.072843
H	-3.5442194396	-2.1271491167	-0.8249932668	 0.109583
H	-3.0070448399	-3.6504087448	-0.104698404	 0.106443
H	-3.3602126515	-2.2572527039	 0.9293793708	 0.107729
H	 0.202477496	-2.3460054777	-1.5603294795	 0.113293
H	-0.9623627346	-3.6719425045	-1.579667371	 0.107582
H	-1.3733900002	-2.1255296948	-2.3329099273	 0.109098
32.2017	112.9619	175.1963	228.0558	228.7895	242.9026	254.5077	302.6286	341.4644	391.5337	413.524	455.2932	463.3998	809.3409	816.5851	878.3993	925.0378	928.6906	933.1819	966.0803	967.7439	995.7363	1050.0963	1089.2376	1176.5942	1187.8382	1194.02	1200.201	1279.0124	1308.2881	1350.2965	1359.1894	1377.1681	1390.959	1400.7368	1403.0912	1419.9304	1425.8574	1475.7948	1486.2546	1488.2635	1493.4634	1497.9309	1504.2635	1506.9675	1507.9391	1512.1396	2991.4088	3003.4548	3010.3531	3020.7475	3021.3369	3025.9387	3026.9717	3034.6365	3084.7669	3084.8421	3091.3736	3091.6915	3096.3213	3096.9038	3103.0558	3104.1084
CC(C)CC(C)C	CC(C)CC(C)C	
InChI=1S/C7H16/c1-6(2)5-7(3)4/h6-7H,5H2,1-4H3	InChI=1S/C7H16/c1-6(2)5-7(3)4/h6-7H,5H2,1-4H3
