17
gdb 2027	6.56132	1.82095	1.75114	1.5529	64.82	-0.2227	0.0868	0.3096	795.7389	0.147643	-309.691365	-309.684336	-309.683392	-309.7224	26.682	
C	-0.6161934863	 1.3933229625	 0.1097864651	-0.397414
C	 0.1110604053	 0.068424352	 0.0148022703	 0.164586
C	 0.9017612319	-0.2449665986	-1.2787618258	-0.378298
C	 2.1006238606	-0.3232114654	-0.3428353096	 0.47385
C	 3.1848782205	-1.3473605644	-0.2612552962	-0.332749
C	 3.5125896912	 0.1191842613	-0.5246626189	-0.33247
O	 1.3343170083	 0.0526115465	 0.802043383	-0.320964
H	 0.0282029998	 2.2138278362	-0.2205680686	 0.120755
H	-1.5164343167	 1.3809652201	-0.5147979401	 0.114273
H	-0.9198229049	 1.5895697969	 1.1429081192	 0.127036
H	-0.5464799485	-0.7530322711	 0.3290016906	 0.076479
H	 0.6332044205	-1.168974583	-1.794193655	 0.109143
H	 0.9310195779	 0.5786749581	-1.9969807764	 0.107316
H	 3.4200838268	-1.7388687875	 0.7227116165	 0.122877
H	 3.2932099572	-2.059566062	-1.0733472746	 0.1108
H	 3.8440469507	 0.410244112	-1.5165568553	 0.111596
H	 3.9607907057	 0.6812883762	 0.2878292059	 0.123185
55.4459	222.4133	240.9443	288.431	371.5878	376.1513	465.0103	555.6487	755.9591	773.8634	828.8546	874.0777	901.7019	910.8626	924.5516	935.5234	993.8632	1046.6713	1064.6475	1083.0173	1106.6315	1135.1221	1186.2449	1199.391	1226.7603	1244.6279	1323.2378	1364.5007	1395.4509	1412.6835	1446.53	1482.6862	1486.2993	1496.1509	1506.8536	3011.0529	3032.6354	3063.3007	3104.6068	3112.7163	3120.2011	3124.1014	3126.8923	3207.8094	3222.163
CC1CC2(CC2)O1	C[C@H]1CC2(CC2)O1	
InChI=1S/C6H10O/c1-5-4-6(7-5)2-3-6/h5H,2-4H2,1H3	InChI=1S/C6H10O/c1-5-4-6(7-5)2-3-6/h5H,2-4H2,1H3/t5-/m0/s1
