12
gdb 2764	4.24213	2.52112	1.80306	4.4044	50.6	-0.2842	-0.0072	0.2769	673.8994	0.089715	-360.490486	-360.483753	-360.482809	-360.52185	23.098	
O	 0.2824456987	 1.3912258047	 0.0886694053	-0.403662
C	 0.1534938749	 0.0036110751	 0.1357388191	 0.066502
C	-0.0228750947	-0.5077199512	 1.5732857994	-0.080124
O	-1.3112774126	-1.0944897249	 1.2624271611	-0.270165
C	-1.2736979819	-0.6124692492	-0.089620924	-0.056692
C	-2.3253868551	 0.3549328952	-0.4062305698	 0.283629
N	-3.1387540202	 1.1232238326	-0.6948910569	-0.313161
H	 0.2852347685	 1.6834224131	-0.8293940187	 0.299924
H	 0.9242635031	-0.5113059057	-0.4494418575	 0.095986
H	 0.692045727	-1.2594544707	 1.9205391448	 0.118534
H	-0.1050506197	 0.3048900323	 2.3022029886	 0.134517
H	-1.318605178	-1.4360608913	-0.8127345512	 0.124711
48.6446	135.2703	230.5623	288.6849	360.5918	423.1106	537.3356	605.1875	786.6997	813.8522	916.0829	977.8909	1011.9674	1034.0415	1065.8854	1148.7045	1173.1508	1236.7391	1238.5533	1307.9427	1341.6113	1353.393	1439.2445	1512.6221	2356.9184	3030.0137	3040.5462	3048.7599	3103.9212	3812.3279
OC1COC1C#N	O[C@H]1CO[C@H]1C#N	
InChI=1S/C4H5NO2/c5-1-4-3(6)2-7-4/h3-4,6H,2H2	InChI=1S/C4H5NO2/c5-1-4-3(6)2-7-4/h3-4,6H,2H2/t3-,4-/m0/s1
