17
gdb 4055	4.23183	1.38007	1.25194	1.0211	67.29	-0.2467	0.0034	0.2501	1010.7891	0.141572	-400.967338	-400.959355	-400.95841	-400.999772	29.674	
C	 0.6478856229	 1.2861232705	 0.1577043555	-0.394213
C	-0.1372994268	 0.0103401373	-0.147007064	 0.12083
C	 0.4085622426	-0.7691481677	-1.3613551556	-0.318678
C	 1.4074542103	-1.6848653577	-0.7024003556	 0.364123
C	 1.0697211894	-1.7571505844	 0.7690104005	-0.154575
O	-0.0672952496	-0.9232625526	 0.9405510526	-0.270851
N	 2.3694973555	-2.2410205925	-1.3171978078	-0.216142
O	 3.1288861461	-3.0318143715	-0.4310151368	-0.397825
H	 1.7224447256	 1.0857175727	 0.2307793208	 0.122307
H	 0.4969496567	 2.0287621102	-0.6327985845	 0.115826
H	 0.3131769919	 1.7154793587	 1.1057430972	 0.127705
H	-1.197432015	 0.2530510966	-0.266398584	 0.085317
H	-0.3920189075	-1.3587657281	-1.8229842529	 0.126476
H	 0.8558187633	-0.13928168	-2.1324366734	 0.125998
H	 0.8208710663	-2.7752001077	 1.0888794809	 0.133322
H	 1.9272593909	-1.4247543448	 1.3731170283	 0.122405
H	 3.8198490974	-3.3772501189	-1.0058335612	 0.307974
68.4832	142.4234	218.374	247.3795	274.1532	345.6841	375.4921	417.0051	492.3012	514.4463	667.3083	738.5133	813.1546	836.9591	893.5577	909.7186	972.29	989.1129	1038.8179	1073.53	1099.3243	1130.2563	1196.5537	1215.1166	1232.3245	1283.279	1322.8842	1355.4672	1383.1266	1406.0549	1407.3793	1467.9231	1489.9969	1493.7841	1500.2411	1769.5793	2995.5258	3034.7468	3040.8113	3059.6026	3064.6029	3104.6554	3116.9143	3121.5895	3822.6543
CC1CC(CO1)=NO	C[C@H]1CC(=NO)CO1	
InChI=1S/C5H9NO2/c1-4-2-5(6-7)3-8-4/h4,7H,2-3H2,1H3	InChI=1S/C5H9NO2/c1-4-2-5(6-7)3-8-4/h4,7H,2-3H2,1H3/t4-/m0/s1
