11
gdb 3873	7.40721	2.23329	1.71949	4.2508	47.77	-0.2128	0.035	0.2478	660.259	0.081192	-372.782655	-372.776571	-372.775627	-372.812166	22.591	
N	-0.0341290027	 1.3398066967	 0.1423913439	-0.594997
C	-0.0371903407	-0.0342978722	 0.0220997311	 0.428142
N	-1.1150425149	-0.7979689574	-0.0641615884	-0.409818
C	-0.5767404198	-2.053143767	-0.0763030757	 0.428437
O	-1.3455986343	-3.147935496	-0.1559954436	-0.410403
N	 0.7330102465	-2.1379690243	-0.0149964474	-0.297947
N	 1.0711493233	-0.7982251903	 0.0442695185	-0.253512
H	 0.7209318804	 1.8124009307	-0.3346127306	 0.257409
H	-0.9330186956	 1.7357324374	-0.0949603496	 0.270597
H	-2.2581538185	-2.8380944774	-0.1880301924	 0.308254
H	 2.0310794263	-0.5349605102	 0.1822341142	 0.273839
227.9693	264.0342	323.9803	332.0521	396.3919	428.014	508.1151	633.6869	675.7837	732.0992	776.0819	800.6781	1022.4871	1071.1184	1103.7262	1150.9301	1230.7158	1342.9964	1441.337	1515.9286	1607.3757	1660.5309	1663.8383	3562.2363	3661.6333	3684.4447	3820.9437
NC1=NC(O)=NN1	Nc1nc(O)n[nH]1	
InChI=1S/C2H4N4O/c3-1-4-2(7)6-5-1/h(H4,3,4,5,6,7)	InChI=1S/C2H4N4O/c3-1-4-2(7)6-5-1/h(H4,3,4,5,6,7)
