17
gdb 1665	4.7065	1.78562	1.47366	1.6828	60.96	-0.2647	0.0176	0.2823	886.71	0.14624	-346.89917	-346.890403	-346.889459	-346.932979	29.771	
C	 0.6440738063	 1.4227761053	 0.011644583	-0.239546
O	 0.7789380121	-0.0006178462	-0.0731194634	-0.237804
C	 0.0296184653	-0.5970479772	-1.0266135339	 0.448539
O	-0.7189319133	 0.007389568	-1.7533622114	-0.362014
C	 0.2889338538	-2.095366326	-1.0598892069	-0.082845
C	-0.8456290518	-2.826023173	-1.7809959789	-0.382771
C	 1.6583942752	-2.3590685796	-1.7182988969	-0.390898
H	 0.9363243868	 1.8963740068	-0.929230887	 0.138767
H	-0.3893836917	 1.7000725054	 0.234775384	 0.139799
H	 1.3060748928	 1.7372989359	 0.818714512	 0.130962
H	 0.3483762333	-2.4304712565	-0.0179079443	 0.098851
H	-1.8055555665	-2.6623066145	-1.2836811349	 0.121272
H	-0.9423067425	-2.4670101893	-2.8089800723	 0.133865
H	-0.6488689257	-3.9020993378	-1.8037598059	 0.108415
H	 2.4594264751	-1.8408286902	-1.1854124622	 0.128959
H	 1.8779255595	-3.4308287955	-1.7138660064	 0.119216
H	 1.6594081813	-2.0189974556	-2.7593431446	 0.127232
29.8932	115.9718	137.3593	202.4485	203.8809	241.1874	294.8734	324.4103	353.1899	474.7348	637.4074	761.4415	834.4561	904.1226	934.5695	972.7124	1022.8269	1115.5342	1132.9301	1179.3122	1184.9409	1208.3014	1222.0257	1329.3127	1372.6297	1398.7905	1420.0217	1472.4571	1481.3699	1486.515	1488.384	1497.9822	1500.1143	1513.1176	1817.4541	3037.2377	3043.275	3045.2268	3049.8365	3107.3721	3114.9877	3123.1698	3123.4368	3125.1132	3155.8236
COC(=O)C(C)C	COC(=O)C(C)C	
InChI=1S/C5H10O2/c1-4(2)5(6)7-3/h4H,1-3H3	InChI=1S/C5H10O2/c1-4(2)5(6)7-3/h4H,1-3H3
