16
gdb 832	6.81068	1.91942	1.52577	1.7549	68.34	-0.1894	0.0527	0.2421	823.6177	0.137355	-288.690999	-288.683565	-288.682621	-288.722372	26.956	
C	 0.0039338263	 1.5166545011	 0.070724027	-0.501459
C	 0.0112884114	 0.0273973715	-0.038296815	 0.327913
C	 0.0091291249	-0.8003852008	-1.1385627818	-0.317906
C	 0.019136298	-2.1560547494	-0.6865019961	 0.294463
C	 0.0207622843	-3.391092862	-1.5362454981	-0.499323
C	 0.0271451182	-2.1071270753	 0.6877120654	-0.184
N	 0.022631217	-0.7850426741	 1.0706413565	-0.295695
H	 0.8887397868	 1.9002743631	 0.5948196503	 0.123248
H	-0.0047788635	 1.9609143898	-0.9271926173	 0.136309
H	-0.8782803509	 1.8907622021	 0.6059635987	 0.123202
H	 0.001340899	-0.4685166366	-2.1669912434	 0.080103
H	 0.8972500461	-3.4327568007	-2.1941077335	 0.120178
H	 0.0301310972	-4.2948880993	-0.919424923	 0.114126
H	-0.8637891448	-3.4430869078	-2.1824856974	 0.12018
H	 0.0360223802	-2.9000254929	 1.4192101739	 0.106533
H	 0.0250664501	-0.4593876887	 2.0212399039	 0.252127
99.7851	102.6176	185.461	254.602	300.144	384.0747	446.3558	581.4185	636.9055	651.1175	709.3858	721.6941	802.5634	974.6435	988.0119	1003.5364	1014.7737	1060.9736	1064.5947	1134.3224	1175.0291	1270.9784	1314.7522	1413.3526	1420.1912	1420.9438	1449.5728	1480.9872	1482.9719	1497.6766	1508.9677	1555.5264	1640.3603	3013.3125	3020.0651	3055.6762	3066.1221	3099.1052	3121.7523	3232.6491	3254.2669	3680.6462
CC1=CC(C)=CN1	Cc1cc(C)c[nH]1	
InChI=1S/C6H9N/c1-5-3-6(2)7-4-5/h3-4,7H,1-2H3	InChI=1S/C6H9N/c1-5-3-6(2)7-4-5/h3-4,7H,1-2H3
