13
gdb 799	4.76954	2.01437	1.42869	3.3526	54.53	-0.2537	-0.0387	0.215	792.723	0.100061	-377.773452	-377.765448	-377.764504	-377.805944	27.696	
C	 0.0887440455	 1.5152290013	-0.0055737017	-0.483572
C	 0.0911783308	 0.0183334432	 0.0099076345	 0.270658
N	 0.1260880349	-0.7149953265	 1.0581192453	-0.175918
O	 0.1629443702	 0.0367774582	 2.2267178542	-0.379667
C	 0.0492324561	-0.7141072659	-1.3138584565	 0.370652
N	 0.0538951506	-2.0674823705	-1.2271238473	-0.532725
O	 0.0142782187	-0.1009480403	-2.3663308136	-0.360702
H	 0.9831335436	 1.9010893467	 0.4940386937	 0.144846
H	 0.055170258	 1.8671378803	-1.0355817356	 0.159851
H	-0.7727423979	 1.8988367963	 0.5504216527	 0.144849
H	 0.1862313085	-0.6382003868	 2.9145636852	 0.311323
H	 0.0834394536	-2.517568255	-0.3285387928	 0.268097
H	 0.0268757176	-2.6052609911	-2.0758280479	 0.262309
52.3297	104.8867	212.2711	236.9103	240.8015	305.1227	407.1921	431.414	495.3931	537.6112	611.5993	633.3392	770.8682	784.2128	982.7223	1052.1676	1054.107	1097.0226	1199.9481	1367.0923	1391.8654	1407.6613	1478.1595	1485.4287	1593.4987	1715.0259	1786.7845	3047.7608	3101.3589	3169.8259	3608.1235	3750.7335	3808.5563
CC(=NO)C(N)=O	CC(=NO)C(=O)N	
InChI=1S/C3H6N2O2/c1-2(5-7)3(4)6/h7H,1H3,(H2,4,6)	InChI=1S/C3H6N2O2/c1-2(5-7)3(4)6/h7H,1H3,(H2,4,6)
