17
gdb 1743	5.1991	1.62501	1.46843	2.707	64.67	-0.2448	-0.0204	0.2244	873.8066	0.14641	-309.71992	-309.712065	-309.711121	-309.752243	28.279	
C	-0.1376181342	 1.5445855831	 0.27229797	-0.458606
C	 0.0002360767	 0.048840106	 0.0522468324	 0.363466
C	-1.2209181128	-0.6125019982	-0.5742568172	-0.344261
C	-1.4764123465	-0.1314634988	-1.9887169579	 0.164953
O	-2.5353910023	 0.2618879767	-2.4052720343	-0.241627
C	 1.3640557699	-0.4988198475	-0.3098798328	-0.296613
C	 0.7891197855	-0.7456658739	 1.0644877597	-0.31101
H	 0.7662661705	 1.961237398	 0.7265796273	 0.116063
H	-0.3122471608	 2.0773203726	-0.6698004255	 0.125163
H	-0.9804084601	 1.7675411434	 0.9367928153	 0.12276
H	-1.0576977407	-1.6981948383	-0.6306271329	 0.114841
H	-2.1257008703	-0.4406414513	 0.0183960225	 0.118363
H	-0.5790847616	-0.1701077464	-2.6498268692	 0.074579
H	 1.421729657	-1.3384313182	-0.9947961731	 0.110915
H	 2.1862076741	 0.2024271571	-0.4034686205	 0.114858
H	 1.2214530033	-0.2086568331	 1.9020055347	 0.114309
H	 0.4549776422	-1.7487564114	 1.3075405513	 0.11185
60.9308	90.59	202.2378	220.1207	318.9546	331.1709	353.2206	462.3044	487.8911	701.6938	780.6519	810.7578	870.3643	917.668	953.5771	962.3595	992.0216	1049.949	1070.4083	1081.5303	1089.285	1128.1815	1189.0449	1202.4706	1286.9124	1326.5753	1362.1308	1422.5597	1425.5974	1454.4951	1471.3256	1491.306	1498.5727	1510.1486	1833.7866	2859.7345	3013.243	3024.5518	3081.9139	3084.3413	3103.4944	3128.5964	3133.127	3206.4052	3220.4358
CC1(CC=O)CC1	CC1(CC=O)CC1	
InChI=1S/C6H10O/c1-6(2-3-6)4-5-7/h5H,2-4H2,1H3	InChI=1S/C6H10O/c1-6(2-3-6)4-5-7/h5H,2-4H2,1H3
