13
gdb 4276	3.97374	2.02386	1.34174	4.7878	64.89	-0.2248	-0.0157	0.2091	845.3079	0.098156	-394.821934	-394.815333	-394.814388	-394.852574	25.263	
N	 0.0426878121	 1.3307637566	 0.1313044018	-0.561939
C	-0.0513327676	-0.0235692511	 0.0441053861	 0.486507
N	-1.1731689106	-0.639621056	 0.0209622508	-0.394039
C	-1.1842032253	-2.0449773812	-0.0033118216	 0.326507
N	-2.2555560112	-2.7442627364	-0.0158215127	-0.538699
C	 0.126737643	-2.6974106546	-0.0206501799	-0.152356
C	 1.2320428171	-1.9556767545	-0.0084820766	 0.036178
O	 1.1948008079	-0.5825949539	 0.0261649638	-0.228749
H	 0.9103707936	 1.7589293772	-0.1456776427	 0.270205
H	-0.8070897158	 1.8369175269	-0.0547939752	 0.277622
H	-3.0586891685	-2.1113936933	-0.0010105052	 0.211018
H	 0.1794920206	-3.777170794	-0.0464318436	 0.126796
H	 2.2521833747	-2.3143751558	-0.0214824351	 0.140949
129.9589	193.1025	341.1451	380.9314	397.537	472.1455	504.8042	527.3512	584.7719	701.2318	758.0184	776.6133	837.4798	902.3151	917.8476	956.5515	960.3261	1022.0159	1115.464	1209.6827	1243.1264	1333.2736	1406.3479	1431.8787	1603.2215	1651.0274	1718.9298	1739.9745	3226.2292	3245.7846	3453.7657	3608.5058	3734.0224
NC1=NC(=N)C=CO1	N[C@@H]1N=C([NH])C=CO1	
InChI=1S/C4H5N3O/c5-3-1-2-8-4(6)7-3/h1-2H,(H3,5,6,7)	InChI=1S/C4H6N3O/c5-3-1-2-8-4(6)7-3/h1-2,4-5H,6H2/t4-/m1/s1
