19
gdb 3074	9.5789	1.015	0.97607	1.0314	68.72	-0.2497	0.0927	0.3424	1230.2077	0.170876	-310.895183	-310.886862	-310.885917	-310.928318	29.269	
C	 0.1311613592	 1.3401593653	 0.0781283611	-0.22662
O	-0.0819442447	-0.041110203	-0.0714013215	-0.230028
C	 0.6815555283	-0.6054313423	-1.1155768471	-0.040177
C	 0.382116594	-2.0986323424	-1.18744363	-0.22379
C	 1.1429106625	-2.7900745177	-2.2975703315	 0.033213
C	 2.5584352019	-3.2671569458	-2.0750159068	-0.255036
C	 1.436554032	-4.2660125047	-2.2211574513	-0.276204
H	 1.1825909031	 1.5702625059	 0.3155151083	 0.100753
H	-0.1411134305	 1.8986018198	-0.8323096722	 0.100628
H	-0.4988146236	 1.6835584461	 0.9026802151	 0.124494
H	 0.4355054649	-0.1189239974	-2.0765289704	 0.079539
H	 1.7584930249	-0.4389926251	-0.9407459122	 0.085679
H	 0.6338779271	-2.5532637425	-0.221606693	 0.100658
H	-0.6983632135	-2.2309644103	-1.3232132017	 0.105685
H	 0.9295257554	-2.4066347544	-3.2929635152	 0.080131
H	 3.2736866021	-3.1720114584	-2.884512994	 0.109342
H	 2.9873478525	-3.13189103	-1.0871026039	 0.110371
H	 1.1145002413	-4.7994110512	-1.3327294627	 0.111329
H	 1.383147403	-4.8513769322	-3.1324390112	 0.110033
71.7438	91.3978	125.1575	142.2174	236.2588	299.8964	322.2403	422.6922	479.3502	776.9672	787.7239	828.3323	841.7853	914.4985	966.0946	992.7614	1041.523	1065.0337	1075.6387	1085.8889	1142.1077	1163.6442	1176.5362	1199.8675	1202.7452	1227.8301	1230.0011	1253.1899	1305.0614	1314.5114	1411.216	1430.089	1470.1495	1482.385	1485.8416	1490.1329	1504.9767	1509.0907	1531.934	2940.8738	2965.4729	2970.9309	3005.7661	3028.3121	3068.0928	3109.7039	3127.9321	3128.9048	3134.2073	3205.9871	3221.3237
COCCC1CC1	COCCC1CC1	
InChI=1S/C6H12O/c1-7-5-4-6-2-3-6/h6H,2-5H2,1H3	InChI=1S/C6H12O/c1-7-5-4-6-2-3-6/h6H,2-5H2,1H3
