12
gdb 4955	3.27319	2.47611	1.4097	6.4444	60.22	-0.2168	-0.0372	0.1796	791.1317	0.086425	-414.732511	-414.726184	-414.72524	-414.763037	23.951	
O	-0.0261287259	-0.0463244994	 0.0045324696	-0.336795
C	-0.0100957088	 1.1625636893	 0.010004693	 0.323838
N	-1.1644880382	 1.9240683366	 0.0290145143	-0.357304
C	-1.215327122	 3.312025498	 0.036143222	-0.036762
C	-0.0743209329	 4.0125352166	 0.0241744142	-0.036762
N	 1.1401919661	 3.3390049265	 0.0047903179	-0.357304
C	 1.2966811662	 1.9648463951	-0.003670101	 0.323838
O	 2.3818019871	 1.4319984826	-0.0205154881	-0.336795
H	-2.0205492655	 1.3870049199	 0.0378554781	 0.265483
H	-2.1927118597	 3.7690880258	 0.0513538272	 0.14154
H	-0.0394787095	 5.0910451103	 0.0287367535	 0.14154
H	 2.006501673	 3.8593718487	-0.0042612707	 0.265483
111.7863	208.293	344.7485	417.5176	501.0341	534.0264	542.005	562.2626	643.9067	672.1982	721.5483	722.2921	809.9309	849.8929	945.4925	1071.5399	1101.5356	1188.0882	1212.2165	1356.1542	1427.1366	1456.8558	1475.9444	1716.6609	1803.26	1818.944	3246.3865	3263.9476	3605.2059	3605.2471
O=C1NC=CNC1=O	O=c1[nH]cc[nH]c1=O	
InChI=1S/C4H4N2O2/c7-3-4(8)6-2-1-5-3/h1-2H,(H,5,7)(H,6,8)	InChI=1S/C4H4N2O2/c7-3-4(8)6-2-1-5-3/h1-2H,(H,5,7)(H,6,8)
