18
gdb 4907	4.63256	1.33727	1.11142	3.2485	75.49	-0.2066	0.0385	0.2452	1117.5527	0.154645	-344.044054	-344.035601	-344.034657	-344.077564	30.415	
C	 0.0820855977	 1.5331102584	 0.115717393	-0.36445
C	-0.066695365	 0.01170036	-0.0430441372	-0.288755
C	 0.6947613382	-0.528134957	-1.2138881118	 0.288554
C	 1.7430354771	-1.4092615881	-1.2258294077	-0.202323
N	 2.0824391345	-1.5637047382	-2.5561284282	-0.274386
C	 1.2379118354	-0.7797471774	-3.2902935027	 0.338749
C	 1.2955722905	-0.6850936156	-4.7787662193	-0.498419
N	 0.3925102091	-0.1450982009	-2.5076326031	-0.34042
H	 1.1255923152	 1.8070017727	 0.3026837077	 0.109229
H	-0.2389643622	 2.0416284914	-0.7972850899	 0.135928
H	-0.5228714194	 1.9031620306	 0.9497271979	 0.102207
H	 0.2681835649	-0.4959921007	 0.8688365916	 0.09199
H	-1.1300863622	-0.2308793659	-0.1639911766	 0.10842
H	 2.2653050816	-1.9290057438	-0.4394942875	 0.120125
H	 2.8160307584	-2.1502620349	-2.9162199048	 0.258642
H	 1.1244735146	-1.6559056516	-5.2586074204	 0.129045
H	 0.5194890752	 0.0045488646	-5.1126392676	 0.156918
H	 2.2645709765	-0.3101385737	-5.1285959934	 0.128948
57.5642	73.3691	138.5382	197.187	249.5221	293.1218	383.2334	424.5427	506.38	601.6794	668.2276	710.4778	721.2498	748.2869	793.3144	958.3935	970.3123	1008.7645	1044.3006	1062.1515	1076.4411	1090.8985	1110.8918	1233.554	1274.1345	1304.8043	1358.0194	1378.4349	1403.5956	1412.5912	1442.482	1479.0374	1483.8995	1494.3315	1500.922	1508.4112	1574.3944	1610.7991	3023.6192	3028.3317	3035.8367	3062.7825	3076.5076	3102.8756	3121.5922	3148.3556	3268.655	3664.6755
CCC1=CNC(C)=N1	CCc1c[nH]c(C)n1	
InChI=1S/C6H10N2/c1-3-6-4-7-5(2)8-6/h4H,3H2,1-2H3,(H,7,8)	InChI=1S/C6H10N2/c1-3-6-4-7-5(2)8-6/h4H,3H2,1-2H3,(H,7,8)
