10
gdb 3906	5.76391	2.93234	1.94357	5.0371	51.21	-0.2729	-0.0918	0.1811	588.5266	0.06766	-359.315205	-359.309996	-359.309051	-359.344257	19.039	
O	-0.0041822601	-0.0565221915	 0.0031750863	-0.322387
C	 0.033953811	 1.1425462218	 0.0092380606	 0.44938
O	-1.183377278	 1.8316486834	 0.0281813646	-0.255814
N	-1.3010745557	 3.2076099574	 0.036520015	-0.035599
C	-0.2064330427	 3.8894052217	 0.0257003649	 0.030101
C	 1.111746954	 3.318027917	 0.0056291046	-0.085541
C	 1.2277129769	 1.9778580799	-0.0025235702	-0.211549
H	-0.3550611857	 4.9644496477	 0.0329497977	 0.147279
H	 1.9772844767	 3.9717877932	-0.0025169288	 0.136747
H	 2.1770567337	 1.4567390094	-0.0176408747	 0.147383
139.7791	324.1422	457.6804	532.7205	547.313	595.976	734.0622	782.0715	848.1145	910.1745	938.9686	993.0492	1023.3923	1037.6419	1125.3656	1206.3432	1347.9163	1418.6639	1601.2634	1679.326	1848.9046	3186.3163	3198.3433	3221.9372
O=C1ON=CC=C1	O=c1onccc1	
InChI=1S/C4H3NO2/c6-4-2-1-3-5-7-4/h1-3H	InChI=1S/C4H3NO2/c6-4-2-1-3-5-7-4/h1-3H
