17
gdb 2183	3.41178	2.57698	1.77682	2.803	64.22	-0.2358	-0.0148	0.221	768.4239	0.147105	-309.736479	-309.728874	-309.72793	-309.768068	27.943	
C	-0.2552587077	 1.5368007355	-0.0972537196	-0.393225
C	 0.0220464507	 0.0379359232	-0.0323490853	-0.011966
C	 1.2310563194	-0.4099461759	-0.9174721643	-0.348098
C	 2.054323716	-0.5220348363	 0.3756770987	 0.389367
O	 3.2266511061	-0.5298083635	 0.620008594	-0.299332
C	 0.7926770649	-0.455219379	 1.2503396569	-0.085769
C	 0.8321912948	 0.3427352668	 2.5459909486	-0.413364
H	 0.6597325173	 2.1232567793	 0.0451399625	 0.121331
H	-0.6690342668	 1.8084028838	-1.073887078	 0.118781
H	-0.9725220748	 1.8478764939	 0.6689740508	 0.119528
H	-0.898741894	-0.5182864437	-0.222567837	 0.073932
H	 1.0913387963	-1.3857068942	-1.3938281858	 0.126349
H	 1.6015899038	 0.2954018905	-1.6663259026	 0.123636
H	 0.4901660097	-1.4900422546	 1.4623211681	 0.101724
H	 1.1272309181	 1.3814978394	 2.3735308728	 0.124229
H	-0.1426668099	 0.344300569	 3.0439982718	 0.11778
H	 1.5622563862	-0.096543884	 3.2322775186	 0.135099
70.1496	178.8683	197.2767	246.4969	260.7806	353.3189	409.8308	479.0483	539.8978	687.4899	730.1111	774.4744	845.629	868.727	965.5712	999.1955	1029.2753	1045.8849	1101.7467	1115.1154	1163.8835	1173.0026	1211.9903	1242.8946	1276.4855	1337.1053	1367.5041	1408.1594	1416.5684	1442.3574	1490.8748	1492.9109	1503.736	1505.6885	1886.0414	3016.9392	3028.7251	3041.7364	3054.297	3073.1328	3097.5788	3102.3022	3108.8029	3112.0067	3117.9224
CC1CC(=O)C1C	C[C@H]1CC(=O)[C@H]1C	
InChI=1S/C6H10O/c1-4-3-6(7)5(4)2/h4-5H,3H2,1-2H3	InChI=1S/C6H10O/c1-4-3-6(7)5(4)2/h4-5H,3H2,1-2H3/t4-,5-/m0/s1
