14
gdb 1907	5.94592	2.23038	1.91951	3.9568	58.22	-0.2431	0.0119	0.2549	684.8097	0.113757	-324.576206	-324.569924	-324.56898	-324.606	24.02	
C	 0.0189528392	 1.546127525	 0.0443231267	-0.4782
C	 0.0540494581	 0.0492834741	 0.0294733344	 0.380315
C	-0.8649223327	-0.8715236933	 0.7702655494	-0.316763
C	 0.6481179706	-0.9388765305	 1.0243363909	-0.274919
C	 1.2621067406	-1.6380033503	-0.1762196365	 0.43453
O	 1.9245589261	-2.6164506297	-0.3713614379	-0.343624
N	 0.7362725138	-0.6721897658	-1.0614929749	-0.391296
H	 1.0124705115	 1.9583555538	-0.1548389556	 0.136482
H	-0.6674842336	 1.9320620113	-0.7181979853	 0.126802
H	-0.3263317372	 1.9137283151	 1.0149273863	 0.127146
H	-1.436254779	-0.4356304487	 1.5856848559	 0.122985
H	-1.3626079378	-1.6898331147	 0.2575531693	 0.121767
H	 1.0854423444	-0.7726461623	 1.9985605878	 0.117469
H	 0.284907856	-0.9227712541	-1.9354307805	 0.237306
157.6936	216.7691	285.9288	354.1519	431.4574	483.6733	566.9276	657.6744	704.6595	758.1949	835.8494	903.2798	912.0223	966.5228	982.8292	1001.0793	1065.4594	1086.2062	1106.8573	1135.438	1221.9803	1276.1491	1319.4587	1383.823	1428.5599	1480.8834	1492.1616	1500.666	1900.3781	3033.3685	3095.8817	3112.7178	3119.2163	3200.1815	3223.932	3531.5544
CC12CC1C(=O)N2	C[C@]12C[C@H]1C(=O)N2	
InChI=1S/C5H7NO/c1-5-2-3(5)4(7)6-5/h3H,2H2,1H3,(H,6,7)	InChI=1S/C5H7NO/c1-5-2-3(5)4(7)6-5/h3H,2H2,1H3,(H,6,7)/t3-,5-/m0/s1
