11
gdb 3859	3.91753	3.48356	1.8621	3.1231	48.08	-0.228	0.0107	0.2388	617.8178	0.080656	-372.741729	-372.735661	-372.734717	-372.771444	22.185	
N	-0.1601757812	 1.4275508878	-0.0502499377	-0.615754
C	-0.0547267052	 0.0187589082	-0.0057436726	 0.137512
C	-1.1317229766	-0.8344628085	-0.0941928359	 0.400974
O	-2.4439231815	-0.6037136075	-0.2324860597	-0.423238
N	-0.6020158628	-2.0680087495	-0.0107246438	-0.239419
N	 0.7571839022	-1.9987465881	 0.1241817741	-0.135064
N	 1.0717744835	-0.7386120748	 0.1265054453	-0.227813
H	 0.3720940402	 1.8128315651	-0.8249269484	 0.25145
H	 0.2075883394	 1.8517344976	 0.796330941	 0.251447
H	-2.5383067956	 0.3601060423	-0.2654738977	 0.314625
H	-1.0655013224	-2.9614546625	-0.0359484244	 0.285281
174.8982	236.7007	272.7403	331.8842	485.2676	497.4211	534.6653	682.0856	713.6138	729.7943	778.465	862.625	1004.9108	1011.846	1183.7779	1221.9895	1233.0477	1303.6348	1349.7582	1419.2064	1574.7925	1646.0746	1695.3603	3493.5767	3556.504	3666.4185	3742.6874
NC1=C(O)NN=N1	Nc1c(O)[nH]nn1	
InChI=1S/C2H4N4O/c3-1-2(7)5-6-4-1/h(H4,3,4,5,6,7)	InChI=1S/C2H4N4O/c3-1-2(7)5-6-4-1/h(H4,3,4,5,6,7)
