17
gdb 4007	3.45364	1.13871	0.87005	0.2935	75.98	-0.2393	-0.0296	0.2097	1307.6756	0.139005	-363.794652	-363.785273	-363.784328	-363.829028	33.395	
C	 0.0104222667	 1.5757225468	-0.0426391441	-0.39087
C	-0.0095149282	 0.0461987921	 0.0208659059	-0.1626
C	 0.6815265039	-0.586905334	-1.1890608219	-0.26336
C	 0.7063915043	-2.0999532804	-1.2054718273	 0.164418
N	 0.1617932338	-2.7324165739	-0.2281143574	-0.162921
O	 0.2531383282	-4.1117095778	-0.3642445391	-0.386975
C	 1.3392143842	-2.734586577	-2.3155201431	 0.329538
C	 1.8874968563	-3.2043533127	-3.2788803009	-0.44527
H	 1.0357808995	 1.9616575335	-0.0676066688	 0.113829
H	-0.5027619248	 1.9456017026	-0.9374884889	 0.113832
H	-0.4868510442	 2.012277908	 0.8288347209	 0.114017
H	 0.4784200912	-0.2991753001	 0.9383921163	 0.110826
H	-1.04170437	-0.3150614258	 0.0784487977	 0.110782
H	 0.201979959	-0.2490357571	-2.118328452	 0.120814
H	 1.7196821337	-0.2334028732	-1.2595794961	 0.120845
H	-0.1918547883	-4.4265941754	 0.4305106011	 0.30889
H	 2.3666478947	-3.6409824453	-4.1202573223	 0.204206
64.939	89.1925	119.8123	169.5219	246.662	265.1188	284.6356	320.581	357.9161	443.7681	480.0804	619.8001	641.4281	650.6638	679.3831	745.8115	815.7625	877.9926	913.7817	1031.8805	1050.6587	1114.7358	1124.3981	1203.3546	1257.8755	1319.6815	1320.5031	1397.578	1403.3879	1414.3691	1471.4634	1487.5519	1500.8177	1508.4772	1684.9541	2219.7329	3012.1915	3028.8797	3035.5061	3049.1691	3076.012	3101.2924	3104.0655	3501.1651	3809.796
CCCC(=NO)C#C	CCCC(=NO)C#C	
InChI=1S/C6H9NO/c1-3-5-6(4-2)7-8/h2,8H,3,5H2,1H3	InChI=1S/C6H9NO/c1-3-5-6(4-2)7-8/h2,8H,3,5H2,1H3
