17
gdb 1151	5.90199	2.00364	1.99953	1.4144	64.77	-0.2546	0.0833	0.3379	730.5993	0.148237	-309.678595	-309.671798	-309.670854	-309.708628	26.957	
C	-0.0101568947	 1.454187253	 0.0052575161	-0.50559
C	-0.0018975591	-0.0497219708	 0.0052769522	 0.337854
C	 0.6174494934	-0.9928971169	-1.0770012091	-0.281907
C	 0.0133385498	-1.9213763207	-0.0034713709	 0.40038
O	 0.0674074514	-3.3002960527	-0.0854082453	-0.468828
C	 0.6368738038	-0.9867587518	 1.0781833232	-0.315847
C	-1.2427314553	-0.9970837311	 0.011551116	-0.315855
H	 1.0096278676	 1.8541012138	-0.003138862	 0.119094
H	-0.5307804514	 1.8456268517	-0.8754730116	 0.119092
H	-0.5160181193	 1.8453580584	 0.8947466356	 0.117781
H	 0.1325102697	-0.9978400721	-2.0572914839	 0.088701
H	 1.7077169022	-0.9891724917	-1.1634006213	 0.088703
H	-0.3707403102	-3.6679429226	 0.6895772404	 0.280694
H	 1.7282494037	-0.9787433208	 1.149109658	 0.088718
H	 0.1654744754	-0.9868207492	 2.0664641977	 0.079146
H	-1.8494199455	-0.9979128288	 0.9230579888	 0.079148
H	-1.8633349616	-0.9984417178	-0.889030584	 0.088717
211.8991	221.5311	240.7588	269.0544	401.8285	412.8594	551.639	551.722	595.2875	652.1326	755.3023	762.5983	936.6251	956.3524	962.6955	963.5002	977.8731	1071.077	1080.1297	1105.6928	1119.0183	1129.0745	1136.0451	1159.2829	1202.8654	1210.9837	1294.6779	1336.7537	1381.2805	1413.8194	1490.4086	1490.5945	1492.7021	1492.7509	1563.1627	3026.5523	3035.2338	3039.2284	3050.4312	3093.5433	3094.3262	3103.3946	3108.7024	3113.3108	3809.8359
CC12CC(O)(C1)C2	C[C@@]12C[C@@](O)(C1)C2	
InChI=1S/C6H10O/c1-5-2-6(7,3-5)4-5/h7H,2-4H2,1H3	InChI=1S/C6H10O/c1-5-2-6(7,3-5)4-5/h7H,2-4H2,1H3/t5-,6-
