14
gdb 818	6.27036	1.96016	1.55944	1.01	56.58	-0.2485	0.0026	0.2511	756.6641	0.113817	-361.673369	-361.666802	-361.665858	-361.703919	23.976	
O	-0.1790946634	 1.3358342548	 0.0346787108	-0.397572
N	 0.023887699	-0.0589040737	 0.0573942148	-0.213052
C	-1.0885812045	-0.6694827881	 0.019916414	 0.365443
C	-1.2253965888	-2.1720089683	 0.042395478	-0.307726
C	-2.6939530558	-2.3163691964	 0.4755523537	-0.079954
O	-3.3610408139	-1.1920555715	-0.0902985496	-0.252887
C	-2.4822930202	-0.0796871866	-0.0042623821	-0.149654
H	 0.7212769949	 1.6746761029	 0.0755310872	 0.308313
H	-1.0845127884	-2.5800513135	-0.9652875715	 0.130646
H	-0.5100516778	-2.6540486662	 0.711045997	 0.127704
H	-3.1816457756	-3.2182436022	 0.0993557187	 0.115666
H	-2.775511975	-2.3062190445	 1.5744805801	 0.097066
H	-2.6548909909	 0.5128305621	 0.908840761	 0.119637
H	-2.6483137995	 0.5784027712	-0.8627445021	 0.136371
96.4593	219.7117	222.863	300.1716	374.7629	487.022	506.28	647.8658	662.7826	821.4164	876.9259	936.7744	957.2354	981.4905	994.1831	1086.3724	1108.515	1194.0466	1203.3261	1231.0304	1252.6901	1297.793	1335.6264	1379.4812	1411.7016	1468.6877	1488.5777	1518.684	1770.8118	2974.9764	2981.114	3043.8601	3077.8111	3105.4231	3120.684	3822.7196
ON=C1CCOC1	ON=C1CCOC1	
InChI=1S/C4H7NO2/c6-5-4-1-2-7-3-4/h6H,1-3H2	InChI=1S/C4H7NO2/c6-5-4-1-2-7-3-4/h6H,1-3H2
