13
gdb 2329	5.47302	1.85617	1.54037	3.5919	51.05	-0.2591	0.0002	0.2593	768.7283	0.099784	-381.580675	-381.573465	-381.572521	-381.612402	24.924	
O	-0.497000335	 1.2608329612	-0.4082608291	-0.417123
C	-0.2214305631	-0.0730765037	-0.1197316545	 0.121393
C	-0.3091784745	-0.6333398256	 1.2750328517	-0.359155
C	-1.3466295341	-1.0138784261	 0.248154569	 0.05462
O	-2.611169402	-0.4154864203	 0.4510871982	-0.201701
C	-3.2777888335	-0.0486502657	-0.6749316982	 0.176177
O	-4.3476933186	 0.4761535421	-0.6321371611	-0.2696
H	-1.0896835466	 1.611121535	 0.2655077069	 0.298547
H	 0.5572601409	-0.443143315	-0.7776488756	 0.121696
H	 0.4060578104	-1.3830344358	 1.593943655	 0.130499
H	-0.649994711	 0.0317828183	 2.0625440265	 0.135813
H	-1.3897411685	-2.0285783985	-0.1361966195	 0.113984
H	-2.7250251345	-0.2966706558	-1.5982338593	 0.094852
64.5796	130.9517	179.4873	246.2867	284.298	367.9524	466.6774	572.2975	683.2557	779.6635	806.7289	890.1527	997.2824	1041.5352	1052.1054	1075.4899	1113.14	1120.816	1152.4869	1158.5751	1234.8787	1327.465	1359.297	1420.4892	1432.8957	1478.0681	1871.096	2988.6728	3133.3379	3149.2298	3177.6556	3224.158	3819.0561
OC1CC1OC=O	O[C@H]1C[C@H]1OC=O	
InChI=1S/C4H6O3/c5-2-7-4-1-3(4)6/h2-4,6H,1H2	InChI=1S/C4H6O3/c5-2-7-4-1-3(4)6/h2-4,6H,1H2/t3-,4+/m0/s1
