15
gdb 4796	5.06595	1.37936	1.0917	2.1848	63.98	-0.1699	0.0672	0.2372	1032.7932	0.118538	-399.81409	-399.805888	-399.804944	-399.846642	29.547	
C	-0.6088151817	 0.6059837917	 0.2840247693	-0.243338
O	 0.5922355247	 0.8138362175	-0.4396664452	-0.259433
C	 0.9368484857	-0.1914585742	-1.2738954146	 0.444981
C	 0.3600238194	-1.4071090179	-1.5804283401	-0.446621
C	 1.2246281503	-2.0137706786	-2.5474940661	 0.328131
O	 1.0607454503	-3.2309526846	-3.1467370711	-0.451024
C	 2.2747983124	-1.1700758602	-2.7937388477	-0.182524
N	 2.0784883603	-0.045525742	-1.9946549116	-0.335217
H	-1.4628386762	 0.4894854289	-0.3950881748	 0.126012
H	-0.5353630209	-0.2837284264	 0.9221125321	 0.126002
H	-0.7526441751	 1.4910296073	 0.9049160417	 0.135221
H	-0.5523392099	-1.8148593437	-1.1754637541	 0.086638
H	 0.253436986	-3.627374682	-2.809387743	 0.293589
H	 3.1233078097	-1.2631348465	-3.4478319274	 0.115724
H	 2.6763641551	 0.7595549008	-1.9435651875	 0.26186
88.8528	141.4435	180.1875	203.4552	253.2365	265.7119	393.422	418.123	502.3864	593.7539	601.372	655.0176	673.7403	715.8031	736.956	986.4698	1003.1417	1084.4876	1114.9657	1166.8029	1184.2035	1193.7646	1235.4998	1314.0105	1327.0136	1448.7783	1470.5628	1483.5569	1504.1672	1516.8553	1598.984	1663.7685	3008.9907	3068.1791	3141.4075	3251.4011	3291.1749	3696.6206	3853.8318
COC1=CC(O)=CN1	COc1cc(O)c[nH]1	
InChI=1S/C5H7NO2/c1-8-5-2-4(7)3-6-5/h2-3,6-7H,1H3	InChI=1S/C5H7NO2/c1-8-5-2-4(7)3-6-5/h2-3,6-7H,1H3
