16
gdb 467	6.55719	3.16956	2.37365	1.5053	56.51	-0.2379	0.0868	0.3246	586.3351	0.144187	-271.647465	-271.641158	-271.640214	-271.67776	22.689	
C	 0.0200457764	 1.5507710374	 0.0719620032	-0.395811
C	 0.0989851855	 0.0338746381	 0.008431518	 0.169668
C	 0.7805785144	-0.5463314365	-1.2363728911	-0.219265
C	 1.2638561377	-1.9091617641	-0.7228157608	-0.234131
C	 1.6290608005	-1.5918712961	 0.7382542469	-0.055083
O	 0.8790799345	-0.4364418731	 1.1123026623	-0.275051
H	 1.0190010628	 1.9894191231	-0.0163249852	 0.116719
H	-0.6064918813	 1.9376908891	-0.7383683003	 0.110097
H	-0.4125419796	 1.8730893695	 1.0232294572	 0.124418
H	-0.9204770332	-0.3830950555	 0.0870373228	 0.060534
H	 0.1070530952	-0.6171585516	-2.094277553	 0.098953
H	 1.6306025488	 0.085101677	-1.5216036098	 0.100215
H	 0.449562058	-2.640228622	-0.7648568358	 0.105705
H	 2.1059338052	-2.3169564743	-1.2871690389	 0.101992
H	 1.3925770173	-2.4204736108	 1.417469111	 0.096435
H	 2.6995418479	-1.3676425202	 0.8461667832	 0.094606
46.6888	189.9711	232.8664	316.6723	461.6272	565.4068	663.9865	816.1459	868.2103	874.4645	909.8242	929.7271	988.1368	1015.0554	1041.4415	1118.3871	1154.3075	1176.7903	1193.489	1220.0501	1254.9601	1309.3377	1337.7379	1359.4742	1393.3379	1397.0208	1410.7625	1483.0259	1486.848	1497.9639	1500.868	1534.8436	2941.2031	3001.2469	3033.8472	3035.9654	3039.8706	3054.6034	3099.3612	3107.7745	3110.828	3116.7912
CC1CCCO1	C[C@H]1CCCO1	
InChI=1S/C5H10O/c1-5-3-2-4-6-5/h5H,2-4H2,1H3	InChI=1S/C5H10O/c1-5-3-2-4-6-5/h5H,2-4H2,1H3/t5-/m0/s1
