16
gdb 4965	3.3034	2.21905	1.34023	3.3497	74.94	-0.2099	-0.0086	0.2013	892.0186	0.133054	-342.851162	-342.843984	-342.84304	-342.882121	27.815	
C	-0.0025591353	 1.5267292781	-0.0025170145	-0.516098
C	 0.0011738507	 0.0222534113	-0.0075621458	 0.26298
C	-0.0528579514	-0.7150579257	-1.1870769585	-0.187184
C	-0.031312143	-2.1054245408	-1.1482107792	-0.016279
N	 0.0379153081	-2.7959191698	-0.0075373374	-0.271852
C	 0.0841146139	-2.0995444296	 1.1247410827	-0.048485
C	 0.0722368081	-0.6999146034	 1.1973685782	 0.20048
N	 0.1924954605	-0.0474966409	 2.4263240353	-0.592026
H	 0.8673732126	 1.9234361362	 0.5343740515	 0.141352
H	 0.0123353276	 1.9248374009	-1.0196193992	 0.130348
H	-0.8956714903	 1.9308938247	 0.4940775609	 0.12557
H	-0.1085980015	-0.2001013347	-2.1414737922	 0.088313
H	-0.0713163989	-2.6854238317	-2.0662861596	 0.098813
H	 0.1380906641	-2.6768224883	 2.0480572114	 0.088072
H	-0.0182876813	-0.6293021759	 3.2250751899	 0.248221
H	-0.2824056039	 0.8414307297	 2.4896332465	 0.247775
165.5381	178.4072	260.7822	292.1016	320.5948	418.5636	452.0143	519.6403	568.4931	613.7831	649.1155	763.9149	771.9835	848.8412	864.6405	932.1583	964.161	1003.9378	1060.5885	1087.7378	1098.2576	1219.4406	1234.33	1304.0717	1319.786	1351.3909	1411.5232	1454.9245	1482.4331	1496.3207	1532.8449	1608.3569	1631.6439	1660.0547	3010.8208	3063.7556	3119.6414	3120.5789	3157.1112	3178.7817	3557.3596	3653.6951
CC1=CC=NC=C1N	Cc1ccncc1N	
InChI=1S/C6H8N2/c1-5-2-3-8-4-6(5)7/h2-4H,7H2,1H3	InChI=1S/C6H8N2/c1-5-2-3-8-4-6(5)7/h2-4H,7H2,1H3
