15
gdb 3520	7.42126	1.64704	1.45883	1.832	56.91	-0.2502	0.079	0.3292	819.9698	0.125188	-345.600676	-345.59395	-345.593006	-345.632573	23.308	
C	 0.103260924	 1.5116288571	-0.0399445901	-0.187354
O	 1.1685315074	 0.5693816798	-0.1711983905	-0.236317
C	-0.1568458653	 0.0670095383	 0.0181371162	 0.084654
C	-0.4285738649	-0.6486215846	 1.3091184917	-0.056614
C	-1.8982311473	-1.054513909	 1.5779923778	-0.085767
O	-1.5621526593	-2.4542856882	 1.5982361937	-0.270455
C	-0.1726834266	-2.1754517259	 1.3305378258	-0.082594
H	 0.1058036718	 2.0939058594	 0.8809363436	 0.114309
H	-0.1422720197	 2.070719834	-0.941613259	 0.118514
H	-0.5804395504	-0.4065966842	-0.8707879131	 0.097377
H	 0.0468585936	-0.1112019984	 2.1321412305	 0.087528
H	-2.3186840113	-0.714464716	 2.5320333755	 0.104376
H	-2.6063936069	-0.811420326	 0.7739863418	 0.099995
H	 0.1592351205	-2.6072621085	 0.3772934069	 0.105609
H	 0.4824979643	-2.5372626379	 2.1314290292	 0.10674
43.7906	74.0824	199.7771	296.3713	366.1426	480.379	754.633	840.1647	863.9419	890.4287	920.7522	962.5637	980.2286	1032.0698	1047.1393	1087.1103	1106.8961	1152.9475	1157.2159	1163.9819	1172.2674	1216.5429	1249.6685	1292.463	1310.6811	1311.5011	1384.0435	1458.264	1513.323	1529.8538	1538.8552	3002.7653	3016.2084	3049.1918	3057.7122	3078.4517	3083.4301	3096.578	3168.8399
C1OC1C1COC1	C1O[C@H]1C1COC1	
InChI=1S/C5H8O2/c1-4(2-6-1)5-3-7-5/h4-5H,1-3H2	InChI=1S/C5H8O2/c1-4(2-6-1)5-3-7-5/h4-5H,1-3H2/t5-/m1/s1
