11
gdb 3705	7.5352	2.18199	1.71014	5.6376	48.36	-0.2562	-0.0015	0.2546	676.4726	0.078985	-376.604793	-376.598768	-376.597824	-376.634607	21.512	
C	-0.0105804643	 1.5116165743	 0.0424774185	-0.497607
C	-0.0073330683	 0.0261346731	-0.0196144581	 0.422597
N	-0.0862510964	-0.6476703654	-1.119782674	-0.168046
O	-0.0496557714	-2.0122708364	-0.7304293828	-0.229778
C	 0.0530350401	-2.116307269	 0.6313310851	 0.511435
O	 0.1054743837	-3.1348015908	 1.2574940166	-0.389273
N	 0.0789568855	-0.7990642136	 1.0719576521	-0.415187
H	 0.9107002085	 1.8857408206	 0.5008284735	 0.152563
H	-0.08969999	 1.9088250711	-0.9701198054	 0.174192
H	-0.8558659879	 1.8762733699	 0.6351969735	 0.152514
H	 0.1502109303	-0.541196834	 2.040786431	 0.28659
159.5972	169.7037	295.5254	338.4116	465.8737	524.3505	630.7799	649.7865	764.3758	770.4104	914.325	966.6014	1013.3826	1035.9366	1069.5684	1204.7669	1273.6168	1411.2908	1464.0053	1476.82	1505.7457	1666.6786	1906.5197	3044.8972	3103.8665	3155.0544	3688.5645
CC1=NOC(=O)N1	Cc1noc(=O)[nH]1	
InChI=1S/C3H4N2O2/c1-2-4-3(6)7-5-2/h1H3,(H,4,5,6)	InChI=1S/C3H4N2O2/c1-2-4-3(6)7-5-2/h1H3,(H,4,5,6)
