12
gdb 1038	7.79662	2.1608	1.70977	3.0669	53.52	-0.2156	0.0162	0.2318	695.4697	0.090007	-360.518768	-360.512366	-360.511421	-360.549979	22.015	
C	 0.0465767343	 1.4291625021	 0.059105256	-0.331445
N	 0.2494202117	-0.0072867995	 0.0883879262	-0.355433
C	 0.6648353725	-0.596504259	-0.9307138804	 0.531399
O	 0.9844926604	-0.065350583	-2.1664964219	-0.226192
C	 1.3954251177	-1.1217148046	-2.9574251772	-0.056354
C	 1.3320735969	-2.2412072785	-2.2473056824	-0.045221
O	 0.8799473289	-1.9502897663	-0.9774256623	-0.217829
H	 0.6605661835	 1.8968201411	 0.837102702	 0.12826
H	 0.2863150372	 1.9007861797	-0.9015499497	 0.120604
H	-0.9984683777	 1.651647997	 0.3027162599	 0.12826
H	 1.6879226315	-0.8982989026	-3.9677599242	 0.160885
H	 1.5543439931	-3.2703067563	-2.4651657659	 0.163065
33.232	162.6175	228.0697	260.4463	524.8069	564.5538	702.2789	707.7906	746.3338	795.0962	857.0108	908.8732	1039.4589	1089.7505	1102.7438	1129.9777	1138.2609	1173.0737	1215.4229	1364.9425	1448.3376	1494.619	1503.1429	1683.0583	1847.2657	3013.0663	3075.88	3079.7567	3296.1703	3322.5026
CN=C1OC=CO1	CN=c1occo1	
InChI=1S/C4H5NO2/c1-5-4-6-2-3-7-4/h2-3H,1H3	InChI=1S/C4H5NO2/c1-5-4-6-2-3-7-4/h2-3H,1H3
