12
gdb 1943	6.39686	1.89294	1.7147	3.3779	52.74	-0.2656	-0.0433	0.2222	716.6084	0.089255	-360.512026	-360.505631	-360.504687	-360.542899	22.203	
N	 0.090362672	 1.1095842005	 0.4883969693	-0.530157
C	-0.0024488662	-0.0344931785	-0.0058281397	 0.455287
C	-1.1364724737	-1.0230535565	-0.1946381951	-0.382427
C	-0.023960869	-1.8875754391	-0.8536384059	 0.031239
O	 0.9491412351	-0.8451108209	-0.6009949389	-0.236162
C	 0.2841419281	-3.1884865871	-0.1494072211	 0.143174
O	 1.1790144764	-3.3484671154	 0.6340726819	-0.219704
H	 1.0444064723	 1.4692079658	 0.4317686621	 0.237232
H	-1.5593598396	-1.4151702418	 0.7319587416	 0.152063
H	-1.9366481614	-0.6900798979	-0.8558602268	 0.150029
H	-0.1546883252	-2.0621419444	-1.9277988871	 0.116007
H	-0.4280645988	-4.0050815047	-0.4130076304	 0.08342
72.8604	117.3382	237.9734	314.8438	456.8906	495.8953	682.473	716.0049	813.3851	866.6013	901.6807	941.3954	978.1823	1010.7754	1053.7927	1083.4987	1134.8607	1207.8681	1226.9215	1288.2921	1362.3421	1417.838	1464.5179	1837.8958	1849.4557	2864.133	3052.5296	3091.9692	3151.2881	3484.8746
N=C1CC(O1)C=O	[NH][C]1C[C@@H](O1)C=O	
InChI=1S/C4H5NO2/c5-4-1-3(2-6)7-4/h2-3,5H,1H2	InChI=1S/C4H5NO2/c5-4-1-3(2-6)7-4/h2-3,5H,1H2/t3-/m1/s1
