17
gdb 3267	3.41786	3.21034	1.7926	1.2578	65.92	-0.2414	0.0209	0.2622	727.907	0.15044	-309.718312	-309.711765	-309.71082	-309.748924	24.81	
C	-0.0111112772	 1.5978199029	-0.0584627873	-0.191213
C	 1.4799745078	 1.9299753439	-0.0973740908	-0.068239
O	 2.0782719017	 1.8855424915	 1.1837635636	-0.234086
C	 2.4927202708	 0.6126857469	 1.6245179031	-0.124841
C	 1.4257999591	-0.4232664198	 1.8864264944	-0.057273
C	 0.2622592535	-0.6258294338	 1.2672652462	-0.052374
C	-0.3439024957	 0.1097163438	 0.0983216671	-0.248456
H	-0.451345949	 2.168394433	 0.7674102128	 0.11039
H	-0.475826438	 1.962208765	-0.9836549359	 0.090295
H	 2.0136953415	 1.2652810932	-0.7984627652	 0.080966
H	 1.6168863137	 2.9578176846	-0.4511558315	 0.102977
H	 3.2280014254	 0.1885129066	 0.9131636158	 0.095254
H	 3.0387168114	 0.7990189561	 2.5559066868	 0.112081
H	 1.6996803189	-1.1249782295	 2.6735001909	 0.085495
H	-0.326523732	-1.4761462831	 1.6082271415	 0.085623
H	-1.4340739588	-0.0004847096	 0.1454306533	 0.102773
H	-0.0464701831	-0.4190709117	-0.8219477949	 0.110629
68.2488	188.7916	323.2745	370.1925	393.2715	430.8717	519.6342	684.5746	742.0183	790.9633	865.9476	887.7823	903.2149	975.2183	1002.4787	1032.8464	1038.6806	1082.3088	1107.7972	1177.4125	1214.6002	1250.5698	1286.9925	1300.0426	1331.7934	1380.6006	1384.1502	1405.242	1421.2984	1429.0738	1469.9867	1476.0759	1478.767	1497.31	1735.3929	2915.9991	2961.0444	2980.5504	3022.6964	3044.903	3059.2788	3063.631	3073.7742	3120.7357	3145.6388
C1COCC=CC1	C1COCC=CC1	
InChI=1S/C6H10O/c1-2-4-6-7-5-3-1/h1,3H,2,4-6H2	InChI=1S/C6H10O/c1-2-4-6-7-5-3-1/h1,3H,2,4-6H2
