15
gdb 1444	6.35729	1.28907	1.1888	2.6304	59.13	-0.2494	-0.0377	0.2117	1001.3994	0.121749	-345.687338	-345.679064	-345.67812	-345.721263	27.528	
C	 0.1156236097	 1.4842673843	 0.2573441724	-0.377243
C	-0.1079980911	-0.0160771718	 0.0928957993	-0.285366
C	-1.4811407452	-0.3744014193	-0.4434780453	 0.370723
O	-2.3260940149	 0.4513579192	-0.7023069681	-0.303325
C	-1.7777139498	-1.8658631683	-0.6281255149	-0.374033
C	-3.0397178341	-2.260148273	 0.1266613945	 0.162922
O	-3.1314088724	-3.2431180513	 0.8121566077	-0.232031
H	 1.1183767688	 1.6846589598	 0.6439122246	 0.115172
H	 0.0022600755	 2.0024688316	-0.6982320832	 0.133924
H	-0.6146795837	 1.9133644741	 0.9478592345	 0.135452
H	 0.636954257	-0.4646998528	-0.5799617896	 0.128295
H	 0.0203864368	-0.5511822499	 1.0451273956	 0.132295
H	-1.9858045362	-2.0152493589	-1.6963367013	 0.156986
H	-0.9531813259	-2.517379679	-0.3325607424	 0.127065
H	-3.8813168542	-1.5499922647	-0.0088840138	 0.109163
30.0123	85.2114	103.3617	177.882	207.981	265.0628	377.7033	463.4978	514.5196	629.5129	736.8033	797.1689	850.5332	961.7929	997.5721	1015.6933	1083.5525	1104.915	1122.1483	1195.6936	1276.0803	1285.4566	1373.2912	1407.8971	1414.5004	1442.5899	1448.0067	1492.1263	1497.3912	1797.3029	1840.2851	2929.493	3012.6101	3033.3606	3037.9303	3053.539	3124.2782	3125.9617	3128.8098
CCC(=O)CC=O	CCC(=O)CC=O	
InChI=1S/C5H8O2/c1-2-5(7)3-4-6/h4H,2-3H2,1H3	InChI=1S/C5H8O2/c1-2-5(7)3-4-6/h4H,2-3H2,1H3
