17
gdb 3271	3.54136	3.19403	1.92369	0.9991	60.36	-0.2472	0.096	0.3432	698.7796	0.150839	-346.855968	-346.849566	-346.848622	-346.885991	24.553	
C	-0.0511899442	 1.4919320283	-0.0297080634	-0.186021
C	 1.2301413247	 2.3144144875	 0.1667228585	-0.18602
C	 2.157616623	 1.7807320954	 1.2629229001	-0.074257
O	 2.7102377458	 0.5251867827	 0.8728256549	-0.241176
C	 2.0074136559	-0.6035340882	 1.3150226241	 0.00251
O	 0.6180654987	-0.5186435299	 1.1536441455	-0.241185
C	 0.1787736115	-0.0205508597	-0.1084496933	-0.074255
H	-0.7396471942	 1.6701224479	 0.8056320239	 0.105617
H	-0.5661427884	 1.823942264	-0.9398286231	 0.092988
H	 1.808691349	 2.330515888	-0.7652314769	 0.105618
H	 0.968472718	 3.3553445764	 0.3941452546	 0.092988
H	 3.0062766249	 2.4596535279	 1.397905999	 0.103899
H	 1.6338928079	 1.6961690833	 2.2248730224	 0.101648
H	 2.436282607	-1.4388537277	 0.7410470511	 0.09605
H	 2.1505626695	-0.7794353312	 2.3919183144	 0.096049
H	-0.7649865961	-0.531339148	-0.327059486	 0.103898
H	 0.894992627	-0.2762577568	-0.9011847858	 0.101648
166.8455	214.4503	269.7325	341.1976	373.8998	433.5546	511.5659	635.9779	802.9858	841.952	852.1167	929.4985	929.6596	977.8455	1021.6248	1075.0836	1092.5432	1142.5528	1157.6844	1160.0568	1254.6112	1255.1848	1281.3837	1318.623	1325.5125	1375.3381	1390.7156	1399.0335	1409.138	1447.033	1470.9251	1477.6506	1494.9646	1497.6514	1520.1497	2980.6664	3013.4	3013.8145	3021.2025	3021.7377	3027.9588	3059.7566	3069.6231	3074.6804	3078.9984
C1CCOCOC1	C1CCOCOC1	
InChI=1S/C5H10O2/c1-2-4-7-5-6-3-1/h1-5H2	InChI=1S/C5H10O2/c1-2-4-7-5-6-3-1/h1-5H2
