14
gdb 4437	3.56082	1.86233	1.24038	4.1842	60.71	-0.2073	0.032	0.2393	922.6962	0.107663	-415.919852	-415.912126	-415.911182	-415.951648	28.18	
C	 0.108873319	 1.5564879777	 0.0583099282	-0.504917
C	 0.001780121	 0.0752277418	 0.0151051323	 0.301556
C	-1.0762263378	-0.7229076439	 0.0393427606	 0.18629
N	-2.429952579	-0.4146652738	 0.1124435418	-0.591484
O	-0.6652937097	-2.0626072561	-0.0234962893	-0.23361
C	 0.710734533	-2.0972544711	-0.0885021283	 0.473635
O	 1.3733685221	-3.0975132102	-0.1522781141	-0.406451
N	 1.1092353059	-0.7786037315	-0.064381231	-0.427338
H	 0.6846481553	 1.8950055573	 0.9280853936	 0.134834
H	 0.6027260027	 1.9524047718	-0.8372216225	 0.134832
H	-0.8927512456	 1.9853371463	 0.1187432745	 0.160067
H	-2.9444747355	-0.7534630685	-0.695559127	 0.251106
H	-2.8681235415	-0.8062909037	 0.9413115328	 0.2511
H	 2.07731985	-0.512262396	-0.1009185015	 0.27038
141.1431	162.6669	214.1999	251.4536	259.3795	295.0117	336.2853	452.6188	578.9587	625.6689	626.0694	657.7938	767.6391	801.5798	842.2642	957.5681	997.1141	1029.6398	1071.1493	1220.8039	1230.1619	1283.8535	1313.2653	1410.8898	1444.9696	1482.1984	1493.726	1657.6301	1792.2148	1894.345	3025.181	3072.4499	3141.7298	3487.0827	3548.1965	3691.6208
CC1=C(N)OC(=O)N1	Cc1c(N)oc(=O)[nH]1	
InChI=1S/C4H6N2O2/c1-2-3(5)8-4(7)6-2/h5H2,1H3,(H,6,7)	InChI=1S/C4H6N2O2/c1-2-3(5)8-4(7)6-2/h5H2,1H3,(H,6,7)
