12
gdb 43	15.61472	6.31363	5.54514	0.1136	41.96	-0.2727	0.1012	0.3738	298.6061	0.109284	-157.116735	-157.11209	-157.111146	-157.143262	16.49	
C	-0.0360224463	 1.5209294871	 0.0156916075	-0.394971
C	 0.0193848675	 0.0100440302	 0.0481495287	 0.049298
C	 1.3089167143	-0.7125199489	-0.2492041635	-0.253192
C	 0.7534742272	-0.7026771391	 1.1556467641	-0.253187
H	 0.9010569135	 1.9538929086	 0.3828333785	 0.111426
H	-0.1964036457	 1.8943736884	-1.0020856904	 0.114571
H	-0.8468527271	 1.9058893	 0.6445132187	 0.114572
H	-0.8841680906	-0.4800188933	-0.3056633472	 0.080252
H	 1.2690090092	-1.6390306782	-0.8115037082	 0.108153
H	 2.1901073818	-0.1113120949	-0.4492751334	 0.107463
H	 1.2624886225	-0.0948745526	 1.8969002762	 0.107463
H	 0.3354083636	-1.6224891773	 1.549806949	 0.108153
224.7745	339.3777	361.6295	768.4634	795.4329	817.4168	872.839	941.2879	1001.4103	1059.1474	1075.0186	1110.2954	1147.4749	1198.2603	1211.67	1235.2562	1393.4795	1423.8292	1468.9598	1492.129	1500.3619	1509.9082	3023.26	3085.4451	3090.0576	3127.2459	3131.9753	3138.8187	3204.7902	3220.2108
CC1CC1	CC1CC1	
InChI=1S/C4H8/c1-4-2-3-4/h4H,2-3H2,1H3	InChI=1S/C4H8/c1-4-2-3-4/h4H,2-3H2,1H3
