12
gdb 1058	7.64752	1.95347	1.59203	1.7385	51.44	-0.243	-0.0015	0.2415	718.7942	0.091537	-360.533387	-360.527283	-360.526339	-360.563802	21.414	
O	 0.3289918747	 1.0404038006	-0.6507019073	-0.401127
C	 0.0113284317	-0.0075922941	 0.2435546959	-0.167974
C	-1.3950646041	-0.4781355429	 0.0594110817	 0.287172
C	-2.3144571214	-0.3486725157	-0.9286901564	-0.185744
N	-3.4910953138	-0.9903590359	-0.551167666	-0.252267
C	-3.2267718495	-1.4662796336	 0.6186135261	 0.069318
O	-1.9762765676	-1.1977381188	 1.0701881786	-0.176653
H	-0.2763050985	 1.7686997514	-0.473301097	 0.28915
H	 0.7233599975	-0.8122574222	 0.0239405504	 0.138725
H	 0.16598513	 0.2722952846	 1.2975142666	 0.11427
H	-2.2146033572	 0.1496312785	-1.8788263551	 0.133652
H	-3.8636956219	-2.0401198819	 1.2731106623	 0.151477
72.2352	183.1518	245.0064	355.9671	446.8696	642.3493	667.9718	712.583	834.2439	864.0953	938.1946	977.4196	1006.3899	1083.928	1118.225	1127.8	1194.8419	1225.365	1249.6116	1334.523	1391.0583	1425.5744	1500.3836	1550.4294	1632.7797	2984.9574	3051.8694	3275.7056	3279.6956	3807.0243
OCC1=CN=CO1	OCc1cnco1	
InChI=1S/C4H5NO2/c6-2-4-1-5-3-7-4/h1,3,6H,2H2	InChI=1S/C4H5NO2/c6-2-4-1-5-3-7-4/h1,3,6H,2H2
