12
gdb 4654	6.65166	1.35538	1.12819	7.7108	64.29	-0.2231	-0.0126	0.2105	960.9007	0.086746	-373.758585	-373.75179	-373.750845	-373.789454	25.131	
N	 0.0060568418	 1.3627190111	 0.1652525979	-0.600194
C	-0.0287295942	-0.0181847081	 0.0504758939	 0.401987
N	-1.1037812826	-0.7651010771	 0.0670624798	-0.356889
C	-0.6320760146	-2.0703337371	 0.0233204884	 0.180565
C	 0.7378026032	-2.0938041389	-0.0326349777	-0.170453
N	 1.1164524408	-0.7692784392	-0.0128301781	-0.278709
C	-1.4960663204	-3.1961922929	 0.0246245521	 0.212463
N	-2.1837279879	-4.1278288509	 0.0238308513	-0.345691
H	 0.5884574364	 1.825602225	-0.5215849293	 0.25519
H	-0.9336296344	 1.7379520326	 0.1426898512	 0.272055
H	 1.446994796	-2.9010663436	-0.0919783713	 0.154847
H	 2.0602153459	-0.4235025208	 0.0378769817	 0.27483
148.7797	159.5835	248.7574	302.7777	390.3765	490.6548	527.1552	547.9243	587.9335	661.5045	708.9701	746.7949	753.7692	785.437	997.7562	1012.4728	1108.7308	1142.6037	1261.8896	1298.5813	1382.4025	1483.3766	1575.7349	1609.7482	1663.4689	2349.8879	3291.4233	3539.0632	3635.5011	3663.9239
NC1=NC(=CN1)C#N	Nc1nc(c[nH]1)C#N	
InChI=1S/C4H4N4/c5-1-3-2-7-4(6)8-3/h2H,(H3,6,7,8)	InChI=1S/C4H4N4/c5-1-3-2-7-4(6)8-3/h2H,(H3,6,7,8)
