15
gdb 4297	3.89096	1.84275	1.26025	3.5506	73.8	-0.2097	-0.0395	0.1702	930.7859	0.119902	-362.704384	-362.697343	-362.696399	-362.735585	26.668	
C	-0.0043200718	 1.5237191295	-0.0084252074	-0.488186
C	-0.021978338	 0.0218163256	 0.0024937504	 0.305301
C	-1.1630044958	-0.6961788594	-0.1090761304	-0.240823
C	-1.1754103603	-2.1448666399	-0.0982057401	 0.38376
N	-2.2278544769	-2.8488641887	-0.2010267483	-0.539195
O	 0.0742403783	-2.7672437923	 0.0361767691	-0.239381
C	 1.2044003373	-2.0391035739	 0.1463520117	 0.0806
C	 1.2269037454	-0.6978037184	 0.1372161961	-0.250783
H	 0.614674844	 1.8991488905	-0.8319242406	 0.138004
H	-1.009423568	 1.9368358556	-0.116551119	 0.13429
H	 0.4325254666	 1.9140304205	 0.9184313349	 0.138038
H	-2.133082696	-0.2259531563	-0.2130839718	 0.116891
H	-2.0012048888	-3.8429555652	-0.1692628512	 0.218658
H	 2.0766205662	-2.6747527966	 0.2415928584	 0.136071
H	 2.1697735079	-0.1743425209	 0.2297233383	 0.106756
131.6693	152.913	198.6152	297.5282	391.0973	448.099	490.7525	577.0706	594.6888	715.1145	747.1302	789.2302	837.0641	841.7645	896.9791	934.4378	966.035	1028.6045	1064.2448	1073.2107	1112.4676	1185.7326	1260.7257	1302.1411	1354.1043	1411.3158	1455.6378	1478.2243	1487.4039	1611.6116	1687.6623	1741.201	3028.4613	3079.8795	3127.5801	3203.3744	3211.9891	3223.7363	3491.2574
CC1=CC(=N)OC=C1	C[C@H]1C=C([NH])OC=C1	
InChI=1S/C6H7NO/c1-5-2-3-8-6(7)4-5/h2-4,7H,1H3	InChI=1S/C6H8NO/c1-5-2-3-8-6(7)4-5/h2-5,7H,1H3/t5-/m1/s1
