11
gdb 699	8.8663	4.23287	4.1998	1.4437	45.55	-0.2396	0.0534	0.2929	381.938	0.085719	-285.160699	-285.156611	-285.155667	-285.187831	16.085	
N	-0.1089986576	 1.5825689679	-0.043325698	-0.345394
C	 1.364764733	 1.3119474105	 0.0088704963	-0.066881
C	 1.2576771701	 0.0260647976	 0.8976151682	 0.082944
O	 1.9954047203	-0.8200888737	-0.029533427	-0.323933
C	 1.2251792545	 0.0557046646	-0.9007039628	 0.112428
C	-0.0347485246	 0.086191715	 0.0139579816	-0.066881
H	-0.4309937002	 1.9539325794	 0.8538189814	 0.213234
H	 2.1306335122	 2.0875212494	-0.0017200854	 0.094612
H	 1.3910091658	-0.1217160594	 1.9703638779	 0.097503
H	 1.3134905696	-0.0496053968	-1.9803268471	 0.107758
H	-0.9045270632	-0.5708058045	 0.009314875	 0.094612
478.0145	531.5151	744.8998	764.8632	790.2717	812.7774	844.5985	878.4274	892.6701	955.6309	972.3797	1052.6812	1096.0955	1101.9408	1151.9845	1160.414	1168.4846	1173.186	1208.452	1288.2459	1293.8617	1351.7494	3107.0825	3121.3024	3125.7501	3149.1668	3409.826
N1C2C3OC2C13	N1[C@H]2[C@@H]3O[C@H]2[C@H]13	
InChI=1S/C4H5NO/c5-1-3-2(5)4(1)6-3/h1-5H	InChI=1S/C4H5NO/c5-1-3-2(5)4(1)6-3/h1-5H/t1-,2+,3-,4+
