16
gdb 2379	4.52408	1.92778	1.72269	3.8353	62.24	-0.2386	-0.0158	0.2228	803.2693	0.135276	-325.773014	-325.765199	-325.764255	-325.805121	27.773	
C	 0.0863516091	 1.5784500783	-0.5361434968	-0.402564
C	-0.0747235504	 0.1494522967	-0.0813534453	 0.01131
N	 1.1240571065	-0.67617136	-0.0284536316	-0.309056
C	 0.438951998	-0.367224826	 1.2411347827	-0.142697
C	 1.1525693213	 0.5191182177	 2.2237820859	 0.410343
C	 0.6891533736	 0.3845207894	 3.6643411956	-0.485935
O	 2.0166211529	 1.3003113726	 1.8966403319	-0.303655
H	 1.0174801398	 1.9972079409	-0.1535918004	 0.16678
H	 0.106202225	 1.6194371342	-1.6304802107	 0.119201
H	-0.7526971423	 2.1921236639	-0.1911169655	 0.111215
H	-0.995740796	-0.3337010601	-0.4093804518	 0.087839
H	 0.9218429298	-1.6359849934	-0.2955079496	 0.235648
H	-0.1593732895	-1.1537974465	 1.6973826618	 0.081493
H	 0.8982562964	-0.6262210967	 4.0348276118	 0.139723
H	 1.2028640249	 1.115763244	 4.288888179	 0.142923
H	-0.3951208292	 0.529586225	 3.7353802829	 0.137432
61.5721	137.9797	176.1699	208.66	244.9746	341.6601	390.7577	430.3398	605.8552	616.5643	753.8259	803.692	851.3109	931.0626	954.8777	1005.5162	1013.8529	1052.995	1080.9899	1145.164	1186.0985	1191.5477	1240.3901	1258.4922	1377.4238	1396.7709	1428.0858	1457.0349	1465.2271	1475.4386	1495.2127	1501.0853	1808.8474	3031.2853	3038.2763	3090.1626	3096.4632	3097.0879	3121.9755	3154.4883	3156.3867	3503.9043
CC1NC1C(C)=O	C[C@H]1N[C@H]1C(=O)C	
InChI=1S/C5H9NO/c1-3-5(6-3)4(2)7/h3,5-6H,1-2H3	InChI=1S/C5H9NO/c1-3-5(6-3)4(2)7/h3,5-6H,1-2H3/t3-,5-/m1/s1
