14
gdb 3731	7.03098	2.00382	1.76024	4.5391	58.79	-0.2554	0.0031	0.2585	729.4899	0.115235	-320.761312	-320.75488	-320.753935	-320.792587	22.628	
C	 0.026318793	 1.4899311011	-0.3023743738	-0.376643
C	-0.0416803206	 0.0514073634	 0.2114752975	-0.146873
N	-1.3686458219	-0.5325014905	 0.0725189453	 0.083678
C	-1.9451794767	-1.1097521102	-1.0083694453	-0.099259
C	-3.2170709897	-1.4176558535	-0.5893400767	-0.065916
N	-3.3562794877	-1.0188915582	 0.704183527	-0.189084
N	-2.2378096901	-0.4810794296	 1.1023089234	-0.149228
H	 1.0335326303	 1.89067273	-0.1551736732	 0.127438
H	-0.2097911778	 1.542003778	-1.3693032852	 0.1276
H	-0.6819839515	 2.1218906076	 0.2393428952	 0.149112
H	 0.6672479372	-0.5907534908	-0.3195933093	 0.125487
H	 0.1956771864	 0.0081223123	 1.2764666928	 0.148728
H	-1.4209746951	-1.2505838459	-1.9387019882	 0.140719
H	-4.0189611659	-1.8981751538	-1.1259148598	 0.124242
33.2631	141.5984	223.1165	362.131	396.4965	653.4276	676.4312	721.3703	783.3433	792.7233	857.7146	960.9769	969.641	1042.3567	1076.0776	1101.0554	1105.2047	1143.3799	1236.4443	1287.1679	1320.683	1362.841	1388.8893	1411.1292	1474.8725	1490.7308	1501.354	1505.0731	1522.9039	3046.1137	3065.1038	3111.2238	3124.7192	3136.8658	3267.2053	3288.4957
CCN1C=CN=N1	CCn1ccnn1	
InChI=1S/C4H7N3/c1-2-7-4-3-5-6-7/h3-4H,2H2,1H3	InChI=1S/C4H7N3/c1-2-7-4-3-5-6-7/h3-4H,2H2,1H3
