15
gdb 2973	3.54863	2.47036	1.72276	3.1562	60.52	-0.2571	0.0244	0.2815	752.6303	0.125626	-304.687547	-304.680263	-304.679319	-304.718937	25.97	
C	-0.1163843906	 1.5462223693	 0.189552903	-0.387155
C	 0.0179993943	 0.0202867321	-0.0026852691	-0.159098
C	 0.8065904065	-0.5647037058	 1.086362715	 0.265992
N	 1.4039383121	-1.0253997983	 1.962491319	-0.331353
C	-1.3509069343	-0.6515053049	-0.121522987	 0.025818
C	-1.5793616569	-2.072928454	 0.2261137178	-0.254592
N	-2.1523613784	-0.9948227428	 1.0569238034	-0.316247
H	 0.8646446691	 2.024218482	 0.2394861017	 0.138611
H	-0.6689136035	 1.9721799748	-0.652282061	 0.130873
H	-0.6614384156	 1.7736397477	 1.1091890032	 0.145311
H	 0.5674508447	-0.1669240422	-0.9351267586	 0.135355
H	-1.9371060498	-0.2184270882	-0.9303719066	 0.102522
H	-2.3039906397	-2.6557120078	-0.3346991998	 0.123761
H	-0.74448439	-2.6406371652	 0.6272045649	 0.136742
H	-1.5955082179	-0.8936827866	 1.9042196442	 0.243459
85.1039	150.797	212.5914	225.2373	254.4434	381.4665	430.2999	573.7968	634.1932	725.161	832.9169	862.3329	932.3099	960.112	997.7345	1025.9914	1086.9153	1113.8889	1146.4207	1161.647	1194.0248	1262.2858	1298.1661	1315.5846	1337.7806	1402.6379	1418.1796	1493.9432	1498.8222	1512.0964	2353.53	3024.4803	3051.1606	3116.111	3121.1956	3128.9515	3134.6977	3204.3572	3482.1646
CC(C#N)C1CN1	C[C@@H](C#N)[C@H]1CN1	
InChI=1S/C5H8N2/c1-4(2-6)5-3-7-5/h4-5,7H,3H2,1H3	InChI=1S/C5H8N2/c1-4(2-6)5-3-7-5/h4-5,7H,3H2,1H3/t4-,5+/m0/s1
