17
gdb 3596	5.15813	2.00978	1.76047	2.7926	64.15	-0.2324	0.0699	0.3023	775.2679	0.149965	-305.846541	-305.839468	-305.838524	-305.877501	26.345	
C	 0.2853351105	 1.5243867675	-0.1316992441	-0.406812
C	 0.0635078902	 0.0476207462	 0.0929052137	 0.013343
N	 1.248681712	-0.8319431066	 0.1139829762	-0.347054
C	 0.4478676029	-0.6755266596	 1.3386319564	-0.049113
C	 1.1422911775	-0.0187436313	 2.4976440023	 0.0006
C	 2.365936212	-0.6407183216	 3.0639740235	-0.238889
N	 2.451121833	 0.6173635475	 2.303358529	-0.316273
H	 1.1235491484	 1.8998488357	 0.457844159	 0.14934
H	 0.4882971714	 1.7263759676	-1.1888681106	 0.118954
H	-0.6096851179	 2.0890107564	 0.151726018	 0.116882
H	-0.8127269224	-0.3524256852	-0.4170058519	 0.083276
H	 1.0572856261	-1.7198200176	-0.3395610048	 0.23383
H	-0.1992639253	-1.5050266611	 1.6237800177	 0.084643
H	 0.4807734959	 0.5226854111	 3.1719250173	 0.091027
H	 2.5816708406	-0.5580402823	 4.1255396746	 0.11356
H	 2.7305806325	-1.5489092415	 2.5902010421	 0.109584
H	 2.7527579226	 0.3874266549	 1.3559626616	 0.243101
107.6239	158.7965	192.7956	243.9943	319.5092	396.16	523.8744	610.0838	749.8702	787.592	853.5045	860.3289	907.9611	949.9937	989.93	1003.8238	1022.3397	1039.8384	1088.6524	1113.6417	1141.0538	1155.7924	1187.4725	1206.2682	1250.5418	1270.3601	1294.2962	1323.5737	1385.9491	1410.7277	1434.3084	1463.6994	1495.2895	1501.799	1505.837	3037.6671	3095.8078	3097.5482	3104.9382	3108.5823	3120.6031	3142.2935	3191.5342	3461.6015	3519.1704
CC1NC1C1CN1	C[C@H]1N[C@H]1[C@H]1CN1	
InChI=1S/C5H10N2/c1-3-5(7-3)4-2-6-4/h3-7H,2H2,1H3	InChI=1S/C5H10N2/c1-3-5(7-3)4-2-6-4/h3-7H,2H2,1H3/t3-,4-,5-/m1/s1
