14
gdb 2328	5.55339	1.7911	1.50964	2.6952	55.88	-0.2443	0.0132	0.2575	802.367	0.112139	-361.678341	-361.671016	-361.670071	-361.710355	25.766	
O	-0.4864207264	 1.3062516841	-0.358575237	-0.42586
C	-0.2238981301	-0.0437743693	-0.1466328939	 0.124829
C	-0.2704993712	-0.654253982	 1.2346431971	-0.359911
C	-1.353480087	-0.9689346494	 0.2361915656	 0.056521
O	-2.5872583779	-0.3386939093	 0.504088649	-0.204938
C	-3.3886714385	-0.1454740785	-0.5751716941	 0.128285
N	-4.4916491254	 0.4454870484	-0.4289128799	-0.434159
H	-1.2774671731	 1.5381987326	 0.1430174387	 0.300393
H	 0.52569195	-0.3996642673	-0.8452458389	 0.114072
H	 0.4322970451	-1.4370632123	 1.4969766965	 0.124581
H	-0.5568565066	-0.0025026273	 2.0536050792	 0.136228
H	-1.4412486559	-1.9685278542	-0.1816066574	 0.107129
H	-2.9687061466	-0.5482498062	-1.5052949421	 0.098739
H	-4.9758963365	 0.5061648108	-1.3221455027	 0.234089
57.6154	91.4532	184.2759	250.2366	339.8352	371.9759	470.0785	549.0437	674.1735	778.2831	801.2498	827.8599	875.6561	983.1402	1043.1142	1049.0901	1073.2034	1079.7211	1113.2978	1127.4322	1170.2249	1230.3951	1279.2798	1329.9492	1363.152	1416.8928	1431.9815	1480.4149	1748.5304	3045.5531	3134.0207	3137.8363	3174.0728	3227.4754	3520.6851	3792.2233
OC1CC1OC=N	O[C@H]1C[C@H]1O[CH][NH]	
InChI=1S/C4H7NO2/c5-2-7-4-1-3(4)6/h2-6H,1H2	InChI=1S/C4H7NO2/c5-2-7-4-1-3(4)6/h2-6H,1H2/t3-,4+/m0/s1
