15
gdb 2313	7.55689	1.40046	1.28926	2.0811	63.31	-0.259	0.0516	0.3105	932.2101	0.122572	-308.465445	-308.457676	-308.456732	-308.497663	27.627	
C	 0.1169866741	 1.5067659954	-0.2212383108	-0.418941
C	-0.0302318459	 0.0430805533	 0.1095068215	 0.07423
O	 1.1579334504	-0.7594185683	 0.125300124	-0.252179
C	 0.4389131055	-0.600660259	 1.3475652252	 0.071937
C	 1.13560859	 0.1385129153	 2.4800753319	-0.381047
C	 1.9997319244	-0.7378856068	 3.2641231674	 0.29848
C	 2.6963217245	-1.4777313551	 3.9050019564	-0.437389
H	 0.9584488909	 1.9651386925	 0.3017355687	 0.12765
H	 0.2815884645	 1.6325481396	-1.2963790355	 0.133187
H	-0.7971241619	 2.0500429415	 0.0419397906	 0.12386
H	-0.8703416959	-0.442688434	-0.3922988543	 0.089781
H	-0.0826483417	-1.5018424754	 1.6745541386	 0.09905
H	 1.7224217457	 0.9672209371	 2.0725351008	 0.139459
H	 0.3717025038	 0.5799123226	 3.1347962702	 0.134176
H	 3.3216905315	-2.1245816088	 4.4686718152	 0.197745
50.8269	121.8457	163.2361	229.7439	324.6254	333.5774	422.1962	487.3609	533.3617	620.2538	643.7456	766.6612	831.118	894.6719	946.2131	985.7384	1007.6394	1090.3067	1096.4288	1174.3368	1178.0987	1238.0048	1298.9151	1321.1739	1396.9344	1416.8745	1450.9106	1468.9189	1490.1179	1511.1666	2242.4959	3020.8896	3040.577	3076.0205	3082.3607	3100.814	3100.9621	3136.1459	3507.4963
CC1OC1CC#C	C[C@H]1O[C@H]1CC#C	
InChI=1S/C6H8O/c1-3-4-6-5(2)7-6/h1,5-6H,4H2,2H3	InChI=1S/C6H8O/c1-3-4-6-5(2)7-6/h1,5-6H,4H2,2H3/t5-,6+/m1/s1
