12
gdb 951	5.84547	2.69484	1.8445	3.3459	58.48	-0.2336	-0.0218	0.2118	635.5898	0.092899	-323.433551	-323.428186	-323.427242	-323.462458	20.718	
O	 0.0988640939	 1.3631715672	-0.1195149655	-0.435429
C	 0.0679028202	 0.0069264878	-0.0239405558	 0.342486
C	 0.0065107991	-0.7292458342	-1.2132269651	-0.0448
N	-0.0284141223	-2.0576510287	-1.2477356853	-0.250727
C	-0.0033676653	-2.7175817021	-0.0846268751	-0.01069
C	 0.0571572449	-2.0768453367	 1.1479215539	-0.097693
C	 0.093671543	-0.6865025466	 1.1829132517	-0.220982
H	 0.1403014663	 1.7453920943	 0.763458238	 0.299468
H	-0.0140486698	-0.1972862428	-2.1612253823	 0.115296
H	-0.0330095206	-3.8019842662	-0.1443030109	 0.105734
H	 0.0755752454	-2.6524116669	 2.0669138941	 0.102688
H	 0.1411949153	-0.150941845	 2.1277747125	 0.09465
232.5001	356.4268	397.879	426.5286	526.6038	551.8865	632.4721	731.6885	824.7073	840.9425	920.0498	952.5541	980.8336	1029.1206	1066.3728	1133.7862	1184.3724	1231.7437	1304.654	1319.9422	1367.7073	1494.0166	1510.3032	1625.7274	1635.0934	3157.559	3161.544	3165.4948	3196.3883	3818.8512
OC1=CN=CC=C1	Oc1cnccc1	
InChI=1S/C5H5NO/c7-5-2-1-3-6-4-5/h1-4,7H	InChI=1S/C5H5NO/c7-5-2-1-3-6-4-5/h1-4,7H
