19
gdb 3018	4.0252	1.97773	1.55327	1.1516	67.92	-0.2484	0.0851	0.3334	874.8811	0.170331	-310.898648	-310.890301	-310.889357	-310.93135	30.062	
C	 0.0555606612	 1.4870026981	-0.0809893612	-0.233218
O	-0.1762219191	 0.1060852965	-0.2166949267	-0.243901
C	 0.6389659392	-0.5482926616	-1.1813038814	 0.118726
C	 2.0507372655	-0.8090399837	-0.6440307685	-0.395734
C	-0.0527326924	-1.8415507106	-1.5744591033	 0.010567
C	-0.8355977154	-2.639361806	-0.5628212914	-0.25506
C	-1.5508259722	-1.9233756235	-1.6841664334	-0.274268
H	 1.0545123239	 1.7131542277	 0.3196998565	 0.10621
H	-0.0564461995	 2.0144081533	-1.0414435215	 0.103668
H	-0.6906655661	 1.8710537198	 0.6194493504	 0.125749
H	 0.7113789897	 0.0956497027	-2.0758010844	 0.061278
H	 2.0027439164	-1.4489258719	 0.2419307771	 0.125991
H	 2.6596415733	-1.3123226366	-1.4021283864	 0.112623
H	 2.5600103916	 0.1210547663	-0.3751127302	 0.111227
H	 0.5166216812	-2.4137632601	-2.3019506728	 0.078087
H	-0.7670980924	-3.7211523862	-0.5957852175	 0.102308
H	-0.9357588875	-2.2181020159	 0.4302575126	 0.124894
H	-2.1129212513	-1.0365448682	-1.4170452271	 0.118662
H	-1.9762345461	-2.5116549302	-2.489915191	 0.102192
68.7251	96.4025	182.9966	204.7837	216.5553	257.246	348.7329	392.1764	481.4086	578.0547	755.4335	791.2776	825.0104	868.2052	913.7871	959.0814	1013.7098	1062.4056	1081.2784	1084.7193	1121.4212	1135.0196	1140.5457	1172.8047	1183.7929	1203.322	1228.6628	1235.5358	1351.9487	1384.2424	1401.6243	1407.5751	1456.5772	1477.1947	1482.9661	1492.6971	1497.2033	1503.9004	1513.5941	2941.3669	2976.6259	3024.3528	3039.4505	3106.5081	3108.5947	3118.7698	3136.4756	3138.5346	3146.1387	3221.7632	3235.2929
COC(C)C1CC1	CO[C@@H](C)C1CC1	
InChI=1S/C6H12O/c1-5(7-2)6-3-4-6/h5-6H,3-4H2,1-2H3	InChI=1S/C6H12O/c1-5(7-2)6-3-4-6/h5-6H,3-4H2,1-2H3/t5-/m0/s1
