15
gdb 1332	4.74434	1.71729	1.60716	4.244	59.3	-0.2462	-0.0197	0.2265	812.5437	0.122453	-345.650338	-345.642702	-345.641758	-345.681809	27.803	
C	-0.0577884855	 1.5778068608	-0.1143799936	-0.451764
C	 0.006355658	 0.0704768717	-0.0098768725	 0.40021
O	-1.1697998574	-0.5763265949	-0.4185487073	-0.456955
C	 1.2892104484	-0.6703379137	-0.2016213727	-0.355676
C	 0.6331460438	-0.6345216987	 1.1850293269	-0.128652
C	 1.2966846483	 0.1072422345	 2.2794500458	 0.159863
O	 1.2270478753	-0.1918510082	 3.4461720557	-0.266228
H	 0.8645848446	 2.0556883066	 0.2244445219	 0.124097
H	-0.2162247802	 1.8724769795	-1.1589975681	 0.114573
H	-0.8913165426	 1.9672241009	 0.4773293954	 0.139455
H	-1.2655756367	-0.4408834492	-1.3685216125	 0.284915
H	 1.258391438	-1.6221604178	-0.7184779675	 0.129518
H	 2.2050345176	-0.1008234462	-0.3289509007	 0.12141
H	 0.1099267746	-1.52934115	 1.5016791442	 0.122024
H	 1.9055977637	 0.9820622346	 1.9514275949	 0.063208
97.6125	172.6561	218.4376	258.8111	279.2269	370.1683	392.8941	397.7522	458.4543	528.7783	687.4168	840.871	874.9652	917.5155	962.3873	1012.8002	1042.9068	1066.5262	1073.0488	1096.6369	1173.3836	1231.1901	1296.0448	1325.6857	1382.123	1418.6393	1447.5575	1471.8255	1487.4335	1505.6288	1817.0646	2854.4543	3030.7399	3096.8	3125.3245	3129.9763	3191.7296	3227.1402	3787.8579
CC1(O)CC1C=O	C[C@@]1(O)C[C@H]1C=O	
InChI=1S/C5H8O2/c1-5(7)2-4(5)3-6/h3-4,7H,2H2,1H3	InChI=1S/C5H8O2/c1-5(7)2-4(5)3-6/h3-4,7H,2H2,1H3/t4-,5+/m0/s1
