10
gdb 780	9.38962	3.68604	2.64694	2.8587	43.41	-0.2185	0.0394	0.258	453.3207	0.075424	-301.36359	-301.358611	-301.357667	-301.391634	18.193	
O	 0.1172086118	 1.3325158179	 0.2136984573	-0.426405
C	 0.0732118825	 0.0020651838	-0.0158467857	 0.441711
C	 0.0833986203	-0.7788982856	-1.1538471783	-0.353611
C	 0.013427485	-2.099936235	-0.6504382723	 0.015236
N	-0.0358710509	-2.1426475195	 0.6737577967	-0.236006
N	 0.0023780473	-0.834639989	 1.0419603808	-0.239752
H	 0.165822635	 1.7898422653	-0.6312779495	 0.313974
H	 0.1331906949	-0.4479326846	-2.1781552585	 0.097521
H	-0.0025345252	-3.0216359438	-1.2141661138	 0.110241
H	-0.022603045	-0.5800565298	 2.0144287634	 0.277089
253.7567	303.3767	407.6479	473.8291	676.9544	688.8344	691.5417	745.0578	887.574	927.4099	1043.3682	1062.282	1107.6662	1173.5402	1256.1667	1336.5351	1385.5003	1454.4201	1569.9756	1627.0694	3240.2501	3266.2859	3681.2649	3846.938
OC1=CC=NN1	Oc1ccn[nH]1	
InChI=1S/C3H4N2O/c6-3-1-2-4-5-3/h1-2H,(H2,4,5,6)	InChI=1S/C3H4N2O/c6-3-1-2-4-5-3/h1-2H,(H2,4,5,6)
