21
gdb 1807	3.49278	1.98158	1.91775	0.0759	73.94	-0.2626	0.0817	0.3443	852.0802	0.193696	-274.985107	-274.976554	-274.97561	-275.017195	32.603	
C	 0.1687604332	 1.4163098129	 0.2621814639	-0.395649
C	-0.0892241374	-0.0633381376	-0.0607203924	-0.018625
C	-1.5943534885	-0.3512386867	-0.169717886	-0.395649
C	 0.6838092181	-0.5322578884	-1.2973227432	 0.415814
C	 0.3400156432	 0.1336071082	-2.618652404	-0.472731
C	 2.1236903022	-0.9367584177	-1.0851611486	-0.313081
C	 1.0715468151	-1.9915278895	-1.3429018167	-0.313085
H	 1.2405069942	 1.6242652085	 0.342550662	 0.112488
H	-0.2436387979	 2.0739895125	-0.5107271138	 0.113613
H	-0.302162805	 1.6945296	 1.2108298767	 0.107513
H	 0.2955932506	-0.6533448632	 0.7829714198	 0.064638
H	-2.0625482001	 0.2505485256	-0.9562603454	 0.113613
H	-1.7815773081	-1.4054081887	-0.397793227	 0.112489
H	-2.1043758235	-0.112265485	 0.7693653415	 0.107514
H	 0.5219616941	 1.2133768402	-2.5887827607	 0.115642
H	 0.9510452766	-0.2783393227	-3.4279185208	 0.110483
H	-0.7097961872	-0.0211185797	-2.8904135556	 0.11564
H	 2.840070102	-0.7257979121	-1.8724623702	 0.104548
H	 2.534906941	-0.8647346775	-0.0831678533	 0.105138
H	 0.7768415086	-2.6271870566	-0.5138272142	 0.105138
H	 1.0760572886	-2.4942256126	-2.3045783519	 0.104548
76.2432	198.7212	219.643	250.3775	253.307	269.0066	302.5756	347.3185	390.131	484.3936	494.9307	668.1488	787.3575	852.7008	868.6948	925.2788	938.2922	941.3372	952.4768	967.1683	1026.4339	1055.2691	1080.1205	1112.1425	1113.7099	1149.1278	1189.3296	1190.4895	1291.7512	1325.1702	1350.8225	1392.4997	1397.6477	1418.1264	1425.1271	1468.9368	1485.4336	1486.8648	1497.3666	1504.5921	1506.7984	1509.869	1514.5069	3000.5387	3028.5702	3028.9103	3034.1847	3089.1654	3096.2044	3097.1312	3101.0621	3101.2192	3103.5491	3122.29	3127.0299	3198.9819	3213.5187
CC(C)C1(C)CC1	CC(C)C1(C)CC1	
InChI=1S/C7H14/c1-6(2)7(3)4-5-7/h6H,4-5H2,1-3H3	InChI=1S/C7H14/c1-6(2)7(3)4-5-7/h6H,4-5H2,1-3H3
