12
gdb 2904	5.46285	2.35891	2.03628	2.6531	50.85	-0.2553	-0.0366	0.2187	634.2572	0.090567	-360.526142	-360.520058	-360.519114	-360.556736	20.794	
O	-0.1817544355	 0.0158921799	-0.0503458478	-0.223593
C	-0.01714306	 1.2012112923	-0.1364162921	 0.147001
C	 1.3181863598	 1.9088238196	 0.0142145908	-0.009204
C	 1.4248693165	 2.650059616	 1.3904391887	-0.204495
N	 2.4347277172	 1.8813587667	 2.1307426931	-0.251101
C	 2.8806222643	 1.017575824	 1.320547671	 0.133091
O	 2.3924545383	 0.9594114801	 0.0552305816	-0.201847
H	-0.8643880054	 1.9068954823	-0.3048202106	 0.082129
H	 1.4673275452	 2.5795120499	-0.838467752	 0.116423
H	 1.7511695758	 3.6887805468	 1.278862869	 0.130066
H	 0.4757423872	 2.660002123	 1.9365435303	 0.129324
H	 3.6548624066	 0.2900315593	 1.5335379282	 0.152206
73.6052	116.1702	251.7342	334.9435	491.9182	697.0014	736.4015	814.7008	870.9059	928.4327	963.3822	978.7289	982.1028	1060.3831	1098.959	1126.7787	1198.433	1269.1629	1311.6358	1327.1266	1363.3161	1417.0515	1502.9067	1712.0199	1848.2268	2860.8919	3044.8474	3060.3233	3083.1122	3229.1662
O=CC1CN=CO1	O=C[C@H]1CN=CO1	
InChI=1S/C4H5NO2/c6-2-4-1-5-3-7-4/h2-4H,1H2	InChI=1S/C4H5NO2/c6-2-4-1-5-3-7-4/h2-4H,1H2/t4-/m1/s1
