12
gdb 1655	5.31042	1.86131	1.39001	0.7074	47.74	-0.2429	-0.0637	0.1792	798.013	0.088215	-397.686127	-397.678406	-397.677462	-397.718256	26.369	
N	-0.0344713084	 1.2943825663	 0.0085457579	-0.517219
C	 0.060982547	-0.051514413	 0.0003769484	 0.320319
O	 1.0893873279	-0.7029673878	-0.0130614832	-0.35257
C	-1.3257643465	-0.7335501568	 0.0098916778	 0.294184
O	-2.3410849696	-0.0822153619	 0.0225851758	-0.288478
C	-1.2730971923	-2.2449819664	 0.0019127421	-0.169697
O	-2.579399329	-2.7552819237	 0.0115264199	-0.401541
H	 0.7964515295	 1.8608822385	 0.0038669777	 0.270543
H	-0.9503626537	 1.7142584895	 0.0198536773	 0.281336
H	-0.6877887437	-2.5458489567	-0.8825925783	 0.133311
H	-0.6715305589	-2.5545130961	 0.8724299322	 0.133274
H	-2.5216161221	-3.7148998218	 0.0045936724	 0.296538
75.3805	98.679	194.0434	234.0824	315.9531	318.5866	373.7886	413.5642	513.5918	619.1701	633.9328	726.2519	787.5733	1002.9371	1045.6364	1099.8209	1152.6973	1227.7623	1237.83	1369.372	1445.4067	1474.0546	1589.8853	1798.4794	1825.8496	2977.8094	2997.747	3594.6306	3736.7082	3840.8678
NC(=O)C(=O)CO	NC(=O)C(=O)CO	
InChI=1S/C3H5NO3/c4-3(7)2(6)1-5/h5H,1H2,(H2,4,7)	InChI=1S/C3H5NO3/c4-3(7)2(6)1-5/h5H,1H2,(H2,4,7)
