16
gdb 2919	6.27303	1.96119	1.57419	2.6693	63.66	-0.2397	0.0355	0.2752	802.9894	0.137796	-325.798888	-325.791717	-325.790773	-325.83106	25.076	
C	-0.0392434953	 1.4290837546	 0.0527592014	-0.331114
N	-0.039682061	-0.0252370651	 0.0514221073	-0.326063
C	 0.5538991003	-0.6497191617	 0.9685842867	 0.441273
C	 0.6245304146	-2.1564449373	 1.1087868782	-0.311014
C	 1.8357119223	-2.3569521861	 2.0298124843	-0.23013
C	 1.8002218051	-1.0703871803	 2.8652618029	-0.07508
O	 1.248138202	-0.0661290614	 2.0025000702	-0.247154
H	 0.6758174462	 1.8807558179	 0.7496402358	 0.120278
H	 0.1786439565	 1.7845584622	-0.960064086	 0.119514
H	-1.0429905658	 1.7926603068	 0.3057943122	 0.121934
H	-0.2960332272	-2.5158285414	 1.5843625534	 0.126972
H	 0.703597984	-2.6387189082	 0.1346928729	 0.133991
H	 1.7804412356	-3.2567467808	 2.6456475847	 0.11072
H	 2.7592699908	-2.400130717	 1.4442247365	 0.118438
H	 1.1538942197	-1.1768924738	 3.746559588	 0.109108
H	 2.7836453722	-0.7271268384	 3.1955585013	 0.118326
32.2318	108.0466	200.9617	238.345	256.0241	483.4249	565.0629	636.344	683.4334	801.8737	879.844	890.9502	935.2844	1002.0002	1027.8041	1069.0392	1093.8047	1131.8497	1149.789	1191.3977	1209.2212	1212.3902	1257.0668	1313.5775	1339.2862	1396.7516	1438.2799	1474.1974	1492.9563	1496.5289	1499.0389	1524.528	1805.2457	3014.4427	3019.1871	3043.3241	3060.3803	3071.5356	3088.199	3097.6013	3118.4154	3135.9067
CN=C1CCCO1	CN=C1CCCO1	
InChI=1S/C5H9NO/c1-6-5-3-2-4-7-5/h2-4H2,1H3	InChI=1S/C5H9NO/c1-6-5-3-2-4-7-5/h2-4H2,1H3
