15
gdb 2752	4.41408	2.27405	1.70695	4.5663	61.16	-0.2503	0.0152	0.2655	743.6559	0.126212	-304.689512	-304.682546	-304.681601	-304.72043	25.196	
C	-0.1529704465	 1.5494196654	-0.0271952304	-0.398241
C	-0.0214621382	 0.0336293516	-0.0433569232	-0.002019
C	 1.1996085985	-0.5097164435	-0.8360515152	-0.17217
N	 1.9433641679	-0.6341483272	 0.4392693009	-0.298434
C	 0.6836098452	-0.5991421382	 1.2081488088	-0.129376
C	 0.7262236268	 0.1666225329	 2.4551301732	 0.300498
N	 0.7355259374	 0.7708335469	 3.4404888709	-0.330237
H	 0.8045031581	 2.0234650403	 0.2078832747	 0.143747
H	-0.4823614341	 1.9103690723	-1.0069089007	 0.118273
H	-0.8837977709	 1.8770570842	 0.7182435303	 0.134524
H	-0.9762441573	-0.4376510966	-0.2828156998	 0.087859
H	 0.9866740654	-1.464400759	-1.3361004991	 0.096589
H	 1.6625497937	 0.1728992748	-1.5561223375	 0.111913
H	 2.5046791673	-1.4694215062	 0.561446026	 0.228602
H	 0.260098677	-1.5882132377	 1.4351837812	 0.108472
108.0625	142.8247	227.4065	251.243	333.2014	376.3201	541.5008	555.8554	663.6382	798.7007	819.7477	897.6344	924.9667	995.1146	1022.9848	1041.4534	1081.0933	1112.2079	1147.2555	1176.2866	1226.0036	1265.4796	1319.6179	1358.0796	1371.0754	1394.208	1416.1035	1494.0903	1497.0809	1521.7662	2354.3539	2994.7115	3005.7612	3039.211	3067.9791	3090.8994	3108.6201	3121.2395	3536.7302
CC1CNC1C#N	C[C@H]1CN[C@H]1C#N	
InChI=1S/C5H8N2/c1-4-3-7-5(4)2-6/h4-5,7H,3H2,1H3	InChI=1S/C5H8N2/c1-4-3-7-5(4)2-6/h4-5,7H,3H2,1H3/t4-,5-/m0/s1
