17
gdb 3320	6.06086	1.95939	1.75963	1.0901	64.25	-0.2428	0.0861	0.3289	773.7766	0.148655	-309.676719	-309.66985	-309.668906	-309.707505	25.669	
C	 0.0087632992	 1.3062941512	-0.1572495276	-0.23545
O	-0.0413210741	 0.0044055079	 0.3783761139	-0.241641
C	-1.2767477964	-0.6329815756	 0.1714326614	 0.147682
C	-1.6057312711	-1.2018205627	-1.2591051793	-0.27114
C	-1.7212643911	-2.5950207214	-0.631658668	-0.041556
C	-0.4222718545	-2.9628382608	 0.0216821776	-0.267186
C	-1.357294633	-2.0369090792	 0.7510160637	-0.078216
H	 0.9959622839	 1.7159210966	 0.0705083447	 0.125521
H	-0.1317482471	 1.3109516069	-1.2489597593	 0.105823
H	-0.7580668484	 1.9599407165	 0.2888736299	 0.101462
H	-2.0961860676	 0.0081841536	 0.5294760585	 0.063998
H	-2.542898422	-0.8107158742	-1.66118761	 0.099709
H	-0.8173700912	-1.0862192051	-2.0102096527	 0.097642
H	-2.4749782203	-3.332450432	-0.8767680172	 0.085134
H	-0.3697220285	-3.9665641819	 0.4307045181	 0.108684
H	 0.517785142	-2.5860288931	-0.3712041721	 0.116816
H	-1.76323906	-2.2842052266	 1.7240456483	 0.082717
106.278	141.9595	193.7647	279.2378	377.9888	446.8239	525.1419	676.3007	785.9959	810.8964	827.0421	921.5851	957.5953	968.1934	1018.9272	1021.0282	1043.3029	1063.7683	1083.1254	1103.6	1135.9422	1163.3653	1183.4358	1200.3221	1236.4119	1242.5062	1269.2124	1318.7626	1366.5126	1387.1897	1475.4174	1481.4367	1487.422	1496.2818	1508.9644	2969.5135	2987.0444	3017.1159	3046.1586	3107.9979	3112.0924	3120.8398	3183.0825	3192.6793	3209.9136
COC1CC2CC12	CO[C@H]1C[C@H]2C[C@@H]12	
InChI=1S/C6H10O/c1-7-6-3-4-2-5(4)6/h4-6H,2-3H2,1H3	InChI=1S/C6H10O/c1-7-6-3-4-2-5(4)6/h4-6H,2-3H2,1H3/t4-,5-,6+/m1/s1
