14
gdb 558	9.64201	2.2122	1.97612	2.8867	54.48	-0.2459	-0.023	0.2229	636.1846	0.119748	-270.431243	-270.425177	-270.424232	-270.46122	21.345	
O	 0.5447217081	-0.2645541674	-0.2221759514	-0.250699
C	 0.2399745337	 0.8829226442	-0.0196776663	 0.155344
C	 1.1914853075	 2.0413443321	 0.0576094541	-0.042544
C	 0.8610468102	 3.2902202716	-0.821718251	-0.232055
C	 1.2416864513	 4.2006466098	 0.3744867318	-0.204861
C	 1.0751858211	 2.9728249847	 1.3069046266	-0.232078
H	-0.8293043739	 1.1736698134	 0.1316558575	 0.061769
H	 2.2108517402	 1.681924247	-0.098566877	 0.091688
H	 1.417536308	 3.3954918384	-1.7549252547	 0.11225
H	-0.2095773317	 3.3420633485	-1.0464243398	 0.107801
H	 2.2831777616	 4.5285603369	 0.3185969159	 0.110284
H	 0.6133769151	 5.072849498	 0.5677545316	 0.103072
H	 0.0708629438	 2.9264337869	 1.7411925333	 0.107795
H	 1.805709675	 2.8201738061	 2.1035687795	 0.112236
76.7841	129.0036	306.9015	333.1346	454.3616	655.9063	770.5513	799.0735	890.1563	894.8859	944.604	970.6574	991.2556	1066.3024	1083.9744	1175.4184	1213.0814	1240.9497	1258.1211	1262.8912	1272.111	1284.4819	1325.6027	1431.6406	1475.674	1486.4981	1507.5634	1829.4924	2826.6062	3049.3747	3053.0117	3063.575	3091.1411	3107.7889	3114.5018	3126.1769
O=CC1CCC1	O=CC1CCC1	
InChI=1S/C5H8O/c6-4-5-2-1-3-5/h4-5H,1-3H2	InChI=1S/C5H8O/c6-4-5-2-1-3-5/h4-5H,1-3H2
