13
gdb 4647	6.85596	1.32952	1.12134	1.6648	69.63	-0.2298	-0.0151	0.2147	1005.9581	0.094867	-361.472229	-361.464946	-361.464002	-361.503851	26.392	
C	 0.0406971736	 1.4671092031	-0.0508115096	-0.496307
C	-0.0574989227	-0.0137539687	 0.004400491	 0.389429
N	-1.0998605609	-0.7599207006	-0.1624197085	-0.340128
C	-0.63055722	-2.0707155498	-0.0045750109	 0.104624
C	 0.704252771	-2.0188339473	 0.2544578509	-0.121736
O	 1.0849476781	-0.7128049012	 0.2634546925	-0.164868
C	-1.4602394926	-3.2103459066	-0.1099397847	 0.233451
C	-2.1587164072	-4.1861607583	-0.197816851	-0.41394
H	 0.7393360879	 1.7852963435	-0.8312458034	 0.149512
H	-0.9458654339	 1.8780665213	-0.2645897563	 0.162354
H	 0.4003747559	 1.8723687142	 0.9004080092	 0.149508
H	 1.4651324229	-2.7561623595	 0.4406476589	 0.155919
H	-2.7798388222	-5.0437005303	-0.2764748881	 0.192182
100.0941	145.3106	148.177	268.7673	338.8289	466.2614	537.6288	556.611	576.3005	659.003	666.6458	716.3336	726.1616	782.7692	932.2536	1000.1806	1046.3868	1067.1954	1148.2118	1215.5316	1261.695	1333.2651	1412.5657	1475.6744	1479.9559	1591.4917	1632.4156	2242.3403	3046.4994	3102.1243	3160.8478	3299.611	3504.4433
CC1=NC(=CO1)C#C	Cc1nc(co1)C#C	
InChI=1S/C6H5NO/c1-3-6-4-8-5(2)7-6/h1,4H,2H3	InChI=1S/C6H5NO/c1-3-6-4-8-5(2)7-6/h1,4H,2H3
