16
gdb 2325	4.96427	1.73717	1.43338	2.3417	61.64	-0.2324	-0.0248	0.2076	854.0564	0.13482	-325.7484	-325.740616	-325.739672	-325.78113	27.013	
C	-0.109182919	 1.5573807505	 0.2937212286	-0.320566
N	 0.0151373544	 0.1158751433	 0.1240585731	-0.070662
C	 1.3015271567	-0.4085880545	-0.316141688	-0.258283
C	 0.8093895328	-0.6707376168	 1.0667970124	 0.011554
C	 1.5113743074	-0.070201651	 2.2749090887	-0.311947
C	 0.5647000658	 0.123505173	 3.4430533528	 0.169579
O	 0.4637184273	 1.1359227286	 4.0856240537	-0.238161
H	 0.8211840665	 2.0689764203	 0.5845553258	 0.105315
H	-0.4436558378	 1.988235713	-0.6550568059	 0.127891
H	-0.8689398784	 1.7724966725	 1.0513274414	 0.134365
H	 1.2735160301	-1.1845822455	-1.0770161162	 0.118165
H	 2.1296639332	 0.2936958924	-0.4147104501	 0.107559
H	 0.3678440439	-1.6466041789	 1.2707857593	 0.095247
H	 2.2858575776	-0.7804247066	 2.6014029968	 0.12883
H	 2.0045631514	 0.8795778265	 2.0594254586	 0.125362
H	-0.057169832	-0.7717456368	 3.6809317791	 0.075753
50.179	74.2512	160.2771	216.9615	279.9637	344.8241	412.5177	474.3644	533.3167	724.4049	749.9873	849.8448	913.9864	1003.9017	1029.9205	1046.7091	1103.3111	1118.3116	1131.5393	1155.7117	1177.4782	1200.5493	1218.3823	1279.0952	1340.8122	1418.7104	1428.7779	1444.7751	1457.6493	1486.8785	1502.1074	1513.3289	1836.7507	2855.791	2981.0845	3011.158	3071.6538	3082.7898	3095.3026	3108.255	3122.9354	3170.6935
CN1CC1CC=O	CN1C[C@H]1CC=O	
InChI=1S/C5H9NO/c1-6-4-5(6)2-3-7/h3,5H,2,4H2,1H3	InChI=1S/C5H9NO/c1-6-4-5(6)2-3-7/h3,5H,2,4H2,1H3/t5-,6?/m1/s1
