12
gdb 4309	4.10071	2.00428	1.35749	3.7839	58.46	-0.2843	-0.0818	0.2026	834.834	0.083999	-414.723944	-414.717204	-414.71626	-414.755315	23.798	
C	-0.0245954262	 1.4860762009	 0.0328633134	-0.45702
C	 0.0030514003	-0.0070236645	-0.0228132228	 0.359458
N	-0.0357751	-0.5992611719	-1.1808348041	-0.337776
C	-0.010351562	-1.9704189689	-1.2366616577	 0.455166
O	-0.0385694324	-2.666536392	-2.199182466	-0.310509
O	 0.0593611491	-2.6506247168	 0.041355955	-0.189518
C	 0.0929125425	-1.9228803124	 1.1438735508	 0.160535
N	 0.0700260797	-0.639930771	 1.2104801272	-0.308873
H	 0.869789923	 1.8478875111	 0.5511759697	 0.156624
H	-0.0779481788	 1.9083515025	-0.9693759368	 0.154294
H	-0.8828156229	 1.8125798416	 0.6297667672	 0.156598
H	 0.1449457677	-2.5328521086	 2.0437260041	 0.161021
92.4714	127.3393	184.1919	328.9324	401.43	527.3759	538.1974	593.8526	653.2596	671.4465	808.9683	827.4695	943.5655	1003.2242	1004.1457	1065.9094	1120.604	1254.3516	1323.1467	1400.183	1425.8281	1456.6609	1469.6976	1566.6264	1678.9989	1909.6915	3047.5851	3104.2119	3169.571	3172.4789
CC1=NC(=O)OC=N1	Cc1nc(=O)ocn1	
InChI=1S/C4H4N2O2/c1-3-5-2-8-4(7)6-3/h2H,1H3	InChI=1S/C4H4N2O2/c1-3-5-2-8-4(7)6-3/h2H,1H3
