11
gdb 3950	7.91049	1.94575	1.59197	3.1745	48.47	-0.2746	-0.0415	0.2331	703.8412	0.07826	-376.540686	-376.53454	-376.533596	-376.571056	21.361	
O	 0.2909903806	 1.0845777638	-0.6623667164	-0.396158
C	 0.004743765	 0.0633069868	 0.2678366461	-0.172612
C	-1.3787723472	-0.484343224	 0.0908682211	 0.365352
C	-2.2964731363	-0.3410103083	-0.9049007322	-0.197207
N	-3.4013187926	-1.0686092163	-0.5295928186	-0.100525
N	-3.2272606514	-1.6228230563	 0.578480539	-0.009211
O	-1.8934003106	-1.2612518269	 1.0362347815	-0.219371
H	-0.2472561064	 1.8516987001	-0.4402630707	 0.295736
H	 0.7368800506	-0.7322413952	 0.0888469231	 0.154431
H	 0.1354420368	 0.385815014	 1.3110075734	 0.130846
H	-2.2460124585	 0.2005689624	-1.8324513463	 0.148718
80.3213	186.5043	242.2623	348.7732	431.6351	582.7101	653.6036	698.6997	718.3294	827.2992	982.4767	985.9945	1043.5364	1094.6178	1119.331	1209.3175	1233.6743	1335.4638	1401.6966	1423.2797	1469.6068	1487.2596	1599.4917	3006.9078	3069.1161	3305.3168	3814.9615
OCC1=CN=NO1	OCc1cnno1	
InChI=1S/C3H4N2O2/c6-2-3-1-4-5-7-3/h1,6H,2H2	InChI=1S/C3H4N2O2/c6-2-3-1-4-5-7-3/h1,6H,2H2
