13
gdb 4664	5.52366	1.40044	1.12501	4.4861	63.44	-0.254	-0.0521	0.2019	991.5059	0.095266	-398.649091	-398.641945	-398.641	-398.680907	24.925	
C	 0.0654919158	 1.4758530421	-0.0189293867	-0.489941
C	-0.0611261431	-0.0027952041	 0.0063286216	 0.388235
N	-1.1077637089	-0.7334583818	-0.178769818	-0.319318
C	-0.6568407555	-2.0463526688	-0.0434175085	 0.138289
C	-1.4973761227	-3.23993978	-0.171318786	 0.076744
O	-2.6804575783	-3.2405360693	-0.4088156369	-0.256915
C	 0.6786373435	-2.0195454065	 0.2237652818	-0.076166
O	 1.0794163782	-0.7273484262	 0.2600206977	-0.167831
H	 0.7753548775	 1.7950237357	-0.7885988589	 0.152578
H	-0.9120726433	 1.9085644712	-0.2306893752	 0.16778
H	 0.4267216756	 1.8543654597	 0.942531969	 0.152584
H	-0.932736449	-4.1889670236	-0.025484022	 0.068776
H	 1.4304350101	-2.7706899585	 0.4004035621	 0.165185
102.7531	132.7982	169.0927	201.3637	349.6596	357.4276	493.7171	643.8551	668.5689	704.5929	800.9022	804.3311	913.6845	1000.5219	1028.9047	1049.4362	1067.9093	1150.2034	1208.2628	1303.653	1350.1057	1412.126	1431.7863	1475.1175	1478.6044	1590.6231	1645.8981	1810.5395	2869.4698	3048.3142	3104.8625	3162.9773	3284.9132
CC1=NC(C=O)=CO1	Cc1nc(C=O)co1	
InChI=1S/C5H5NO2/c1-4-6-5(2-7)3-8-4/h2-3H,1H3	InChI=1S/C5H5NO2/c1-4-6-5(2-7)3-8-4/h2-3H,1H3
