15
gdb 3677	3.63992	3.22465	1.74682	1.952	62.78	-0.2269	0.0334	0.2603	718.0179	0.126214	-304.734646	-304.727519	-304.726575	-304.76573	25.519	
C	 0.019023022	 1.5535339814	-0.0148190668	-0.510283
C	 0.0048306688	 0.0561586802	-0.0168794388	 0.15671
C	-0.0332142822	-0.7930885396	-1.1025448591	-0.114754
N	-0.0316278005	-2.0562161574	-0.6103568033	-0.19015
N	 0.005275191	-2.0945975753	 0.7357810383	-0.285809
C	 0.0276521686	-0.8157853346	 1.1072264224	 0.280651
C	 0.0712019558	-0.4414047223	 2.5547984916	-0.494029
H	 0.9169614781	 1.951434242	 0.4729490075	 0.12686
H	-0.0053192738	 1.951839051	-1.033067128	 0.120689
H	-0.8429785032	 1.9680535575	 0.5215244445	 0.12686
H	-0.0607152877	-0.5946737054	-2.1630814974	 0.125807
H	-0.0536615022	-2.9204273007	-1.1227894592	 0.270231
H	 0.9648199131	 0.1478794293	 2.7918069213	 0.124078
H	-0.7966392993	 0.1645802471	 2.8404813055	 0.124077
H	 0.0797293814	-1.3418424532	 3.1724012015	 0.139061
97.491	122.3107	229.1562	247.557	290.6845	410.3132	469.9485	627.4918	659.3479	703.6196	718.4523	784.7355	940.8978	1005.4334	1006.9876	1051.7732	1078.089	1084.2382	1163.0119	1230.5376	1321.5261	1391.6157	1410.281	1423.9515	1475.6161	1480.4041	1484.4527	1487.1751	1501.5907	1517.0792	1618.063	3022.7208	3027.5346	3068.7505	3074.841	3105.8305	3131.4323	3252.5956	3683.861
CC1=CNN=C1C	Cc1c[nH]nc1C	
InChI=1S/C5H8N2/c1-4-3-6-7-5(4)2/h3H,1-2H3,(H,6,7)	InChI=1S/C5H8N2/c1-4-3-6-7-5(4)2/h3H,1-2H3,(H,6,7)
