15
gdb 3294	4.82682	2.63739	2.13291	2.9561	56.51	-0.2406	0.0588	0.2994	647.1013	0.125642	-345.605421	-345.59913	-345.598185	-345.635634	23.566	
O	-0.1618693765	 1.4671413723	 0.175212565	-0.423169
C	-0.0233960964	 0.0775251457	 0.068489297	 0.143727
C	 0.3734501386	-0.7705726938	 1.3222744452	-0.289499
C	-0.8460775117	-1.7016073525	 1.0564209592	-0.081311
C	-2.1049912775	-1.2701359506	 1.8174991067	-0.069324
O	-2.3797056727	-0.2264422251	 0.8543614459	-0.282933
C	-1.3485397417	-0.700654958	-0.0312936317	 0.100911
H	 0.7167248688	 1.8589266957	 0.19817843	 0.285315
H	 0.6108974405	-0.207036877	-0.7866927136	 0.063981
H	 1.3558858786	-1.2447004975	 1.2684178537	 0.097571
H	 0.2960935897	-0.2147669625	 2.2608196432	 0.107643
H	-0.6605392208	-2.760834451	 0.8898417313	 0.076421
H	-2.9098518156	-2.0178453268	 1.8316421021	 0.096604
H	-1.9613438872	-0.8767237641	 2.8316035703	 0.101967
H	-1.7380430262	-0.9500719548	-1.0225825141	 0.072097
86.5579	224.5398	240.5504	370.7586	390.3459	549.0795	635.5179	765.7847	807.4731	825.9129	914.8598	929.9535	959.4901	998.5319	1024.9968	1064.8073	1072.5217	1134.2817	1142.6315	1177.7977	1193.2308	1212.0654	1217.4462	1252.28	1296.7568	1318.613	1336.2922	1364.9905	1433.3683	1477.8907	1522.9857	2966.4853	3000.2745	3049.4525	3059.2079	3065.3551	3114.6884	3132.2683	3820.2016
OC1CC2COC12	O[C@H]1C[C@H]2CO[C@@H]12	
InChI=1S/C5H8O2/c6-4-1-3-2-7-5(3)4/h3-6H,1-2H2	InChI=1S/C5H8O2/c6-4-1-3-2-7-5(3)4/h3-6H,1-2H2/t3-,4-,5+/m0/s1
