14
gdb 306	9.35988	2.40174	2.08257	2.8997	53.83	-0.2394	-0.0163	0.2231	615.4797	0.118664	-270.446915	-270.440714	-270.43977	-270.476747	22.568	
C	-0.4602580996	 1.460440287	-0.0669672354	-0.403704
C	 0.1068791777	 0.051911889	 0.0317425295	 0.042497
C	 1.3350293115	-0.2976570289	-0.8707655745	-0.351021
C	 2.0197162194	-0.8825091686	 0.3745122805	 0.404518
O	 2.9757830518	-1.5812560451	 0.5452361797	-0.289233
C	 0.9424335317	-0.3032665135	 1.3048365693	-0.351021
H	 0.3254833208	 2.2114931206	 0.07675789	 0.114593
H	-0.9148692575	 1.638426202	-1.0473747061	 0.120412
H	-1.229029259	 1.6339377254	 0.6935842926	 0.120412
H	-0.689372596	-0.684117235	-0.1138425069	 0.084067
H	 1.189171214	-0.9821247109	-1.7103412931	 0.127107
H	 1.8634626144	 0.5909306845	-1.2363944313	 0.127133
H	 1.3089450181	 0.5830112224	 1.8365286072	 0.127133
H	 0.512941202	-0.9917791689	 2.0370552519	 0.127107
63.2728	241.6682	291.916	368.2682	420.8944	483.0238	633.367	660.6666	750.0585	879.7187	909.1479	931.2305	960.669	1066.8857	1074.7725	1131.8262	1146.8799	1194.7718	1227.5552	1240.3545	1278.4977	1366.3532	1415.9306	1427.0522	1449.6324	1495.8429	1498.8647	1893.7965	3025.5356	3042.4651	3047.0275	3058.3211	3093.2649	3097.6374	3109.148	3110.999
CC1CC(=O)C1	CC1CC(=O)C1	
InChI=1S/C5H8O/c1-4-2-5(6)3-4/h4H,2-3H2,1H3	InChI=1S/C5H8O/c1-4-2-5(6)3-4/h4H,2-3H2,1H3
