16
gdb 411	5.32426	2.84956	2.38565	1.3206	56.77	-0.2616	0.0757	0.3373	610.3779	0.142009	-271.618137	-271.611049	-271.610104	-271.648484	25.913	
C	-0.0493635278	 1.5432926295	 0.1109170025	-0.458805
C	-0.021234465	 0.029922541	 0.0244263538	 0.393739
C	-1.2965137094	-0.5949261027	-0.4903156421	-0.139633
O	-1.515754103	-0.1473057753	-1.823412801	-0.423096
C	 1.275310002	-0.6507908794	-0.3401527644	-0.284829
C	 0.7431839177	-0.7459133678	 1.0700841945	-0.314781
H	 0.9079903468	 1.9377479859	 0.4649548081	 0.107002
H	-0.2595515831	 1.9793390988	-0.8697821361	 0.134095
H	-0.827830409	 1.8842441046	 0.8046548735	 0.106916
H	-1.2131481839	-1.6930508905	-0.451368996	 0.077294
H	-2.1371962986	-0.3054662026	 0.1619011517	 0.081893
H	-2.3975972506	-0.4223403171	-2.0901643726	 0.28539
H	 1.2300390474	-1.5359208161	-0.9654874168	 0.111882
H	 2.1443094635	-0.0265813322	-0.5183197355	 0.1086
H	 1.2463241028	-0.1815609732	 1.8480908539	 0.108422
H	 0.3455670102	-1.6994352028	 1.4031724266	 0.10591
106.5522	209.0201	234.8801	242.5905	325.3663	348.1586	365.2469	507.2448	715.4167	781.4064	873.4151	913.2259	938.6578	956.5724	994.0715	1046.3827	1069.0237	1078.2056	1087.8533	1124.3662	1185.8438	1243.9196	1245.6738	1333.9369	1365.6988	1412.4741	1461.3276	1468.1128	1485.1815	1500.8596	1512.1504	1517.97	2956.3347	2987.2208	3025.3795	3088.8465	3114.1327	3125.4625	3132.5402	3203.5613	3219.0201	3831.3045
CC1(CO)CC1	CC1(CO)CC1	
InChI=1S/C5H10O/c1-5(4-6)2-3-5/h6H,2-4H2,1H3	InChI=1S/C5H10O/c1-5(4-6)2-3-5/h6H,2-4H2,1H3
