10
gdb 4231	3.64884	2.45489	2.00597	2.3939	36.9	-0.28	-0.0521	0.2279	639.062	0.06114	-490.834069	-490.827048	-490.826104	-490.866146	23.371	
C	-0.2208087225	 1.4691956704	 0.0273301097	-0.494291
C	 0.209280958	 0.0251575599	 0.0613517601	 0.253769
O	 0.6141464305	-0.5639512292	 1.0257409687	-0.259176
C	 0.097518398	-0.7177999652	-1.3008419277	 0.218372
F	-1.1742734093	-0.6896628799	-1.7317464095	-0.079329
F	 0.8529938626	-0.0968213797	-2.2214729949	-0.079327
F	 0.4880721184	-1.9777402173	-1.2093239902	-0.043078
H	 0.3833071	 2.0187133562	-0.7018692857	 0.163806
H	-1.2617277363	 1.5380955232	-0.3049286465	 0.163802
H	-0.1102567496	 1.9091343815	 1.0181127361	 0.155453
35.9827	129.0129	225.4031	227.1008	357.118	419.8247	496.1602	556.0381	617.0495	623.8876	768.7119	963.4417	1038.7293	1126.3125	1176.555	1245.0405	1331.314	1385.1675	1463.5892	1465.1102	1857.2691	3049.1867	3113.231	3166.203
CC(=O)C(F)(F)F	CC(=O)C(F)(F)F	
InChI=1S/C3H3F3O/c1-2(7)3(4,5)6/h1H3	InChI=1S/C3H3F3O/c1-2(7)3(4,5)6/h1H3
