18
gdb 4782	5.51804	1.22946	1.08265	1.3046	76.44	-0.1805	0.0563	0.2368	1141.6766	0.154813	-344.015697	-344.007108	-344.006164	-344.049194	31.141	
C	-0.6977525301	 0.9658651973	-0.0886754496	-0.323439
N	 0.5506484108	 0.1964823963	-0.1753089919	-0.385131
C	 0.9474091121	-0.4508237105	 1.0106166819	 0.309563
C	 1.8368327427	-0.1187880204	 2.0095822481	-0.319401
C	 1.8579145025	-1.1925407793	 2.9544004853	 0.297051
C	 2.6773811142	-1.2715017113	 4.2071150258	-0.499772
C	 0.9675492088	-2.1368726221	 2.4995467711	-0.184265
N	 0.4197739047	-1.680376016	 1.3213683361	-0.269375
H	-0.6722126686	 1.7642463795	 0.6689240269	 0.109522
H	-0.9131670166	 1.410742458	-1.0647222355	 0.116881
H	-1.5228606102	 0.2932596697	 0.1624391411	 0.124101
H	 1.3010197896	 0.7912715692	-0.5038160958	 0.232154
H	 2.4033772406	 0.7994667615	 2.066800191	 0.075968
H	 2.4518257461	-0.4490850959	 4.8968113757	 0.119379
H	 2.4911516341	-2.2081921553	 4.7413434408	 0.114597
H	 3.7521112066	-1.2216974087	 3.9942749462	 0.119772
H	 0.6783239844	-3.0876821854	 2.9184889088	 0.106839
H	-0.1862958218	-2.1969500666	 0.7083417441	 0.255555
45.8177	112.4573	137.1115	175.6808	252.2411	275.6358	378.5473	422.7436	490.2421	576.7594	639.952	682.313	706.6485	711.7972	778.7852	794.4923	980.7449	988.7367	1002.8512	1052.2913	1063.7964	1122.2819	1142.4961	1159.1459	1187.7199	1268.469	1328.2737	1408.5838	1419.3397	1422.8767	1452.3323	1482.7891	1487.8249	1492.2938	1508.7458	1517.1032	1563.5161	1635.3081	2984.318	3019.4316	3065.3474	3075.4523	3099.1775	3113.0142	3232.4686	3256.8326	3558.0507	3682.2355
CNC1=CC(C)=CN1	CNc1cc(C)c[nH]1	
InChI=1S/C6H10N2/c1-5-3-6(7-2)8-4-5/h3-4,7-8H,1-2H3	InChI=1S/C6H10N2/c1-5-3-6(7-2)8-4-5/h3-4,7-8H,1-2H3
