9
gdb 4218	6.20197	2.83305	1.94471	2.2732	46.1	-0.2571	-0.0891	0.168	565.2671	0.056285	-379.522177	-379.517358	-379.516414	-379.550875	17.318	
F	 0.0013465738	 0.058788167	 0.0037866394	-0.047612
C	-0.0227066583	 1.3794018016	 0.0104282204	 0.340119
C	-1.2501681869	 2.0500862303	 0.0304330633	-0.099689
N	-1.2584909017	 3.3702361711	 0.0373464842	-0.212054
C	-0.046640282	 3.9470158294	 0.0240880261	 0.111646
N	 1.1294897397	 3.3297280448	 0.0052004019	-0.178271
N	 1.1353719746	 1.9936376956	-0.0018144021	-0.214496
H	-2.1930813746	 1.5100903426	 0.0404296679	 0.152008
H	-0.0101326145	 5.0314307076	 0.029164189	 0.14835
205.3524	411.7132	422.1606	537.959	592.5927	634.6617	786.4348	871.1177	936.8841	996.1082	1048.6216	1121.0566	1172.4566	1224.3111	1323.3833	1419.7765	1452.599	1569.8224	1604.8598	3173.9224	3200.3674
FC1=CN=CN=N1	Fc1cncnn1	
InChI=1S/C3H2FN3/c4-3-1-5-2-6-7-3/h1-2H	InChI=1S/C3H2FN3/c4-3-1-5-2-6-7-3/h1-2H
