13
gdb 1638	4.92384	2.10431	1.4899	4.7493	52.29	-0.2583	-0.0085	0.2498	763.4856	0.101719	-377.837977	-377.830535	-377.829591	-377.869484	26.026	
C	-0.0561551802	 1.4880114224	 0.0115672899	-0.369347
N	-0.012314902	 0.0308990979	-0.0074242366	-0.149943
C	 0.0394071908	-0.6483703608	 1.2066473859	 0.173757
O	 0.0604983378	-0.0950939226	 2.2806600492	-0.326782
C	-0.042694924	-0.7260819108	-1.1975216915	 0.488199
N	-0.0688282818	 0.0226384605	-2.3461653613	-0.56757
O	-0.0805938084	-1.9390867198	-1.2010568454	-0.382904
H	 0.8560644678	 1.9243363476	-0.4123282977	 0.132223
H	-0.9270762996	 1.8594106628	-0.5357636429	 0.143655
H	-0.1279995908	 1.7881285544	 1.0569523777	 0.181333
H	 0.0576097412	-1.7352809462	 1.059547977	 0.142348
H	 0.2506516948	 0.9756066207	-2.3628772038	 0.262826
H	 0.0545094644	-0.513342856	-3.1899679505	 0.272202
77.8117	174.1822	202.5924	267.1115	316.8355	344.9968	365.528	456.3303	529.0339	549.1177	667.5146	774.5016	852.5829	1036.1492	1057.9881	1096.7442	1154.1839	1214.9148	1322.4017	1375.5568	1414.565	1450.9831	1505.5466	1514.61	1620.2447	1798.7133	1815.6718	3027.3737	3076.5603	3095.3573	3156.6675	3606.705	3730.2867
CN(C=O)C(N)=O	CN(C=O)C(=O)N	
InChI=1S/C3H6N2O2/c1-5(2-6)3(4)7/h2H,1H3,(H2,4,7)	InChI=1S/C3H6N2O2/c1-5(2-6)3(4)7/h2H,1H3,(H2,4,7)
