11
gdb 3854	3.81922	3.52241	1.85259	4.2276	50.27	-0.2206	-0.014	0.2066	624.3	0.078765	-372.729173	-372.722648	-372.721704	-372.759157	23.796	
N	 0.057189417	 1.3955257743	 0.0764258667	-0.581494
C	 0.025984252	 0.0373705703	 0.0259952791	 0.463575
C	-1.0789516199	-0.7981106201	 0.020432517	 0.099075
N	-2.4236465089	-0.3938040912	-0.0031833332	-0.608939
N	-0.581160852	-2.0729266597	 0.0284917908	-0.114876
N	 0.655983941	-2.1298722592	 0.0289291692	-0.054252
O	 1.1344479249	-0.6558009364	 0.0332644389	-0.248193
H	 0.8892140326	 1.8465842511	-0.269463127	 0.272128
H	-0.8173155834	 1.8380154428	-0.1656920547	 0.273131
H	-2.9170216761	-0.6208492267	 0.8543496733	 0.249798
H	-2.9370045572	-0.8072003951	-0.7742567502	 0.250048
195.7837	226.8944	265.034	306.7668	330.7901	405.6579	523.5435	528.7893	664.7657	672.2878	750.7657	785.6267	816.8356	957.0997	1088.9057	1196.5591	1230.933	1345.0137	1495.8864	1506.2835	1605.0146	1649.7018	1683.7418	3499.8832	3566.7536	3578.2111	3696.4609
NC1=C(N)N=NO1	Nc1c(N)nno1	
InChI=1S/C2H4N4O/c3-1-2(4)7-6-5-1/h3-4H2	InChI=1S/C2H4N4O/c3-1-2(4)7-6-5-1/h3-4H2
