12
gdb 2966	5.21882	1.96302	1.58289	1.1751	53.01	-0.2605	-0.1046	0.156	745.4726	0.089362	-360.499843	-360.493115	-360.492171	-360.531087	22.838	
O	-0.8463705563	 1.2253167659	-0.628291846	-0.214946
C	 0.3158174455	 0.959583203	-0.4711578776	 0.094195
C	 1.3605895849	 1.9769180386	-0.0011492128	 0.289969
O	 2.5199458663	 1.6233647186	 0.0803325841	-0.312059
C	 0.8906726153	 3.3445011542	 0.3229522241	-0.112212
C	 1.3839079163	 3.9188419791	 1.6240334691	-0.214162
N	 1.9045443303	 4.4123625638	 0.36253138	-0.298987
H	 0.7478694124	-0.0460377624	-0.6548440815	 0.113404
H	-0.0918745126	 3.6186342784	-0.0414247678	 0.129078
H	 0.7272224179	 4.5963701435	 2.161330803	 0.138143
H	 2.0126707777	 3.2794753596	 2.2375372487	 0.136569
H	 2.8098185224	 3.9741130977	 0.1874037068	 0.25101
78.3345	132.8747	188.0427	253.8492	291.9314	513.3236	609.3972	644.7981	779.3595	837.3804	890.2399	968.3111	1000.5728	1039.2004	1117.1843	1130.8893	1170.7629	1184.9396	1287.3641	1315.0948	1365.3071	1408.9146	1498.9118	1775.5876	1823.374	2933.0432	3115.761	3195.7084	3212.0503	3462.9152
O=CC(=O)C1CN1	O=CC(=O)[C@H]1CN1	
InChI=1S/C4H5NO2/c6-2-4(7)3-1-5-3/h2-3,5H,1H2	InChI=1S/C4H5NO2/c6-2-4(7)3-1-5-3/h2-3,5H,1H2/t3-/m1/s1
