14
gdb 3334	4.41232	3.45219	2.33774	2.1283	57.21	-0.2332	0.0193	0.2525	587.3824	0.116209	-324.571081	-324.565527	-324.564583	-324.600322	21.259	
C	-0.0774465532	 1.4451561575	 0.2148228653	-0.295906
C	 1.2933783198	 0.8623283708	 0.00422647	-0.059887
C	 2.2214779541	 0.6205599664	 1.171149047	-0.092891
O	 1.5748142511	 0.0061322357	 2.300513611	-0.231856
C	 0.5623346093	-0.860818465	 2.0457294048	 0.11825
N	-0.1535237139	-0.9634208496	 1.0078270589	-0.255976
C	 0.0851941203	-0.0390491633	-0.0602008224	 0.021112
H	-0.3726394863	 1.7245367449	 1.2208101654	 0.129266
H	-0.4938020718	 2.0677101717	-0.5694261832	 0.11776
H	 1.8069431736	 1.100616876	-0.9227730791	 0.094067
H	 3.0425515372	-0.0363216807	 0.8543701301	 0.115466
H	 2.6579442952	 1.5466848551	 1.5579323437	 0.120015
H	 0.3912025062	-1.5011376925	 2.9085404323	 0.124217
H	-0.2489024016	-0.4052356071	-1.0245016838	 0.096362
132.4959	269.6319	348.8968	518.9967	542.975	634.6456	758.6095	820.1658	821.7441	885.0743	906.9392	936.5353	976.8022	1025.9082	1051.9954	1084.9584	1100.1804	1124.8536	1156.7999	1180.353	1216.5097	1279.5173	1362.3489	1391.5062	1412.9738	1419.5691	1484.9271	1513.6902	1723.0711	3016.8649	3073.017	3132.9028	3149.5573	3162.948	3169.1306	3222.7752
C1C2COC=NC12	C1[C@H]2COC=N[C@@H]12	
InChI=1S/C5H7NO/c1-4-2-7-3-6-5(1)4/h3-5H,1-2H2	InChI=1S/C5H7NO/c1-4-2-7-3-6-5(1)4/h3-5H,1-2H2/t4-,5-/m0/s1
