15
gdb 3133	5.87987	2.11494	1.84818	2.1144	57.1	-0.2334	0.0735	0.3069	716.7522	0.124074	-345.587398	-345.580628	-345.579683	-345.618134	24.706	
C	-0.2627890216	 1.3434083185	-0.061496724	-0.254214
O	 0.2211267658	 0.0187950865	 0.1113861506	-0.271562
C	 0.7567459629	-0.5244494497	-1.0289925315	 0.359105
C	-0.0717852106	-1.0057797132	-2.2054220508	-0.353041
C	 0.833916059	-1.9586621365	-1.4671111814	 0.016174
O	 2.1827232561	-1.8214861343	-1.9239962859	-0.28439
C	 2.2315388598	-0.4517816126	-1.4350927943	-0.14048
H	 0.5455878838	 2.0404953869	-0.3223850598	 0.113407
H	-1.0312246112	 1.3883313073	-0.8447279062	 0.115953
H	-0.6991445202	 1.6478623036	 0.8919607575	 0.131168
H	-1.1259540336	-1.1188774429	-1.9693097197	 0.11988
H	 0.1572381261	-0.722104282	-3.2293562957	 0.114204
H	 0.5341901295	-2.8957639937	-1.0141618551	 0.115582
H	 2.5294697497	 0.2596443912	-2.2137652945	 0.103661
H	 2.9003403745	-0.3733671689	-0.5705366592	 0.114553
89.6109	170.6473	201.4574	313.8274	377.1503	421.6925	461.3482	655.6892	740.535	874.1287	900.4068	929.8734	983.5316	990.6251	1008.9272	1044.1661	1073.5527	1092.2375	1102.7504	1155.1273	1180.0238	1210.4047	1231.5866	1287.4626	1301.2164	1397.4638	1463.7325	1487.732	1498.4465	1505.707	1514.3269	2997.1361	3025.5767	3053.7113	3080.828	3111.0022	3126.9608	3192.5231	3208.9408
COC12CC1OC2	CO[C@]12C[C@H]1OC2	
InChI=1S/C5H8O2/c1-6-5-2-4(5)7-3-5/h4H,2-3H2,1H3	InChI=1S/C5H8O2/c1-6-5-2-4(5)7-3-5/h4H,2-3H2,1H3/t4-,5+/m1/s1
