17
gdb 3469	4.08254	2.81648	2.5591	1.7666	62.71	-0.2413	0.0888	0.3301	644.2272	0.150568	-309.70215	-309.696139	-309.695195	-309.731589	24.094	
C	-0.1885888702	 1.6297910964	-0.0197145782	-0.438054
C	 0.0247943201	 0.1258320259	 0.0203460533	 0.044702
C	 1.175835471	-0.5987104119	-0.7272942675	 0.064004
C	 2.4661979825	 0.0928388004	-0.2384613544	-0.217099
C	 2.127800465	 0.085382524	 1.286935104	-0.2171
C	 0.753212664	-0.6080257159	 1.1778057639	 0.063995
O	 1.0416960816	-1.6900687725	 0.2370606964	-0.300299
H	 0.7253623841	 2.1933269956	 0.1863551579	 0.119973
H	-0.5554059081	 1.9411563349	-1.0038809933	 0.120389
H	-0.9386672098	 1.9327008278	 0.7190040076	 0.120386
H	-0.9050719697	-0.4095307138	-0.1885395982	 0.084932
H	 1.1076474067	-0.9126261238	-1.7694091662	 0.073202
H	 3.3460491822	-0.5076912125	-0.4771994834	 0.107344
H	 2.6067557416	 1.093926088	-0.6551188378	 0.096538
H	 2.8253896113	-0.5191857162	 1.869718802	 0.107343
H	 2.0769431864	 1.0822458188	 1.7332681047	 0.09654
H	 0.2514031213	-0.9315053551	 2.0903533793	 0.073204
190.1634	257.8628	273.6842	350.5906	507.3764	576.3584	717.6801	737.247	807.559	836.233	862.1371	871.645	922.8674	942.7307	949.0891	1004.9495	1027.7631	1056.2102	1078.5342	1136.2119	1161.4569	1186.0586	1208.105	1228.4095	1247.9557	1277.2362	1307.1539	1312.2132	1341.2615	1391.9225	1416.4535	1476.8648	1495.7683	1503.6839	1505.9942	3035.4264	3062.3419	3069.9614	3078.0424	3094.1222	3107.7431	3115.1755	3115.8469	3119.499	3125.9274
CC1C2CCC1O2	C[C@H]1[C@H]2CC[C@@H]1O2	
InChI=1S/C6H10O/c1-4-5-2-3-6(4)7-5/h4-6H,2-3H2,1H3	InChI=1S/C6H10O/c1-4-5-2-3-6(4)7-5/h4-6H,2-3H2,1H3/t4-,5+,6-
