20
gdb 3103	3.55854	2.01839	1.62959	1.2798	71.65	-0.2105	0.0801	0.2906	885.2265	0.181804	-291.017996	-291.00923	-291.008286	-291.050839	31.671	
C	 0.1019293416	 2.2365824452	 1.2127561575	-0.371396
C	-0.6868460337	 0.9416950858	 1.4047795976	-0.111338
N	 0.2152963938	-0.1423905651	 1.7784375436	-0.103742
C	-0.23126368	-1.5378479202	 1.7442204849	 0.00056
C	-1.6340855392	-1.9558536171	 1.3551933006	-0.412738
C	 0.7851456947	-1.0383942613	 0.7640095172	 0.000676
C	 0.5184082395	-0.9144371655	-0.7217325231	-0.416244
H	 0.8072015937	 2.146615087	 0.3801551974	 0.115842
H	-0.5710020212	 3.0725412453	 0.9962672334	 0.106378
H	 0.6757662746	 2.4708186317	 2.1136355379	 0.125113
H	-1.4010707575	 1.0657992431	 2.2280663432	 0.099693
H	-1.2849354637	 0.7442007826	 0.5021926543	 0.07883
H	 0.1493779513	-2.111574032	 2.5906649715	 0.081565
H	-2.0155703315	-1.4370463718	 0.4741159794	 0.118282
H	-1.6577788859	-3.0306486535	 1.1446113706	 0.119614
H	-2.3331642393	-1.769191944	 2.1782189794	 0.122276
H	 1.8264584145	-1.2850901662	 0.9751550468	 0.082314
H	-0.5300382059	-0.7367212323	-0.9664841891	 0.120303
H	 1.1049979631	-0.0967913527	-1.155408698	 0.123156
H	 0.821665611	-1.837526279	-1.2278176853	 0.120857
76.1442	136.3245	154.248	179.5608	210.1118	247.9913	297.5293	325.4812	458.8746	509.6709	553.7631	706.9765	764.0533	807.8941	817.6211	952.0961	963.35	1019.2759	1053.3286	1060.6874	1100.7518	1123.0312	1158.83	1174.0149	1191.7545	1199.8402	1306.1205	1349.0881	1378.2873	1384.295	1406.8242	1414.9315	1420.7008	1441.3556	1482.1142	1486.372	1490.253	1497.7999	1501.8496	1510.6917	1518.1573	2981.829	3034.5071	3037.0134	3038.2803	3042.388	3078.2583	3088.744	3089.9491	3090.1724	3105.7496	3119.0576	3126.8219	3137.7213
CCN1C(C)C1C	CCN1[C@@H](C)[C@H]1C	
InChI=1S/C6H13N/c1-4-7-5(2)6(7)3/h5-6H,4H2,1-3H3	InChI=1S/C6H13N/c1-4-7-5(2)6(7)3/h5-6H,4H2,1-3H3/t5-,6+,7?
