21
gdb 2334	5.59747	1.23311	1.11499	0.0937	75.23	-0.2615	0.0923	0.3538	1151.2167	0.194161	-274.983383	-274.974653	-274.973709	-275.016651	31.74	
C	-0.1731064947	 1.5361583849	 0.0523373848	-0.381496
C	-0.1465087607	 0.0143118674	-0.1100425432	-0.151846
C	 0.9267642176	-0.4692904469	-1.0953606095	-0.190912
C	 0.9472982467	-1.9770558283	-1.2448719532	 0.014171
C	 0.027248059	-2.677636917	-2.2199588638	-0.290935
C	 1.5205091358	-2.6904021853	-2.4499368031	-0.004567
C	 2.1402726269	-1.9650881283	-3.625077729	-0.403313
H	 0.7885602247	 1.9135288446	 0.4182589336	 0.112176
H	-0.3788039046	 2.0329991343	-0.9026011382	 0.111706
H	-0.9447102104	 1.8499119813	 0.7625384437	 0.109731
H	 0.0238650906	-0.4562643244	 0.867374565	 0.09189
H	-1.1282852291	-0.3402305717	-0.4486509942	 0.097967
H	 0.7553209646	 0.0050626986	-2.0692857035	 0.090094
H	 1.9114463365	-0.1170825874	-0.7560689676	 0.090563
H	 1.0982024794	-2.4961405467	-0.3000556803	 0.075083
H	-0.4712558234	-3.5926837976	-1.918478781	 0.104415
H	-0.567545758	-2.0477798238	-2.8761159468	 0.103324
H	 2.0124544321	-3.6326895377	-2.2196940989	 0.078382
H	 1.6016272202	-1.0457293702	-3.8712345295	 0.115218
H	 3.1835677607	-1.6944476982	-3.4255712792	 0.113964
H	 2.1283157861	-2.5977805776	-4.5197308663	 0.114385
75.8496	90.2091	121.5922	191.793	247.7998	251.0617	305.5292	366.0902	439.827	504.2592	741.2978	763.7024	825.6179	857.7977	866.3599	893.9715	922.0343	960.7732	1022.5524	1047.3125	1057.3137	1088.2958	1110.5074	1130.7669	1152.1185	1199.0683	1200.4274	1246.451	1269.6111	1302.2754	1328.9578	1377.8739	1397.8849	1410.3152	1418.8408	1430.821	1479.9479	1491.256	1493.8113	1497.3889	1499.9547	1506.1206	1510.4673	3004.5362	3017.6027	3027.1819	3027.996	3041.0235	3060.2352	3083.5777	3093.4143	3099.4228	3104.001	3116.3409	3119.673	3132.7569	3203.1763
CCCC1CC1C	CCC[C@H]1C[C@H]1C	
InChI=1S/C7H14/c1-3-4-7-5-6(7)2/h6-7H,3-5H2,1-2H3	InChI=1S/C7H14/c1-3-4-7-5-6(7)2/h6-7H,3-5H2,1-2H3/t6-,7+/m1/s1
