15
gdb 1405	6.14001	1.3783	1.21574	2.2671	63.74	-0.252	-0.0277	0.2243	952.1718	0.121788	-308.497008	-308.488744	-308.4878	-308.530026	28.608	
C	 0.0391449396	 1.5559752373	 0.0114680851	-0.407998
C	 0.0383744785	 0.019065451	 0.0048663001	-0.057681
C	-1.4013796367	-0.5611890408	 0.0673836404	-0.368195
C	-2.1209661256	-0.1719050502	 1.272541114	 0.299463
C	-2.6951835466	 0.154406708	 2.2768038115	-0.43311
C	 0.7082093041	-0.4774335888	-1.2620724145	 0.155604
O	 1.7194480786	-1.1269084624	-1.30606773	-0.24166
H	 1.0602891198	 1.9466577077	 0.032601407	 0.131777
H	-0.459215555	 1.954667134	-0.8799698718	 0.120278
H	-0.4943292668	 1.9282237812	 0.8895570829	 0.145097
H	 0.6153513087	-0.3625150316	 0.8520882138	 0.109047
H	-1.9627669636	-0.2314847187	-0.8177231009	 0.133632
H	-1.35291974	-1.6558485052	 0.011487764	 0.144154
H	-3.2149967019	 0.4343813767	 3.1594583773	 0.199998
H	 0.177515867	-0.1763894483	-2.1987469189	 0.069594
55.3334	73.6962	147.0099	220.0982	301.963	320.6793	338.8707	355.8328	462.449	587.4763	623.2636	645.6807	853.2294	894.0741	907.5244	947.2848	999.689	1104.4276	1115.5456	1155.1848	1240.6783	1274.4057	1346.9518	1356.3036	1404.429	1429.5889	1470.6152	1497.0432	1500.4311	1839.2102	2238.6047	2833.1763	3013.9229	3035.0701	3050.223	3079.0725	3107.1792	3126.8903	3505.4848
CC(CC#C)C=O	C[C@@H](CC#C)C=O	
InChI=1S/C6H8O/c1-3-4-6(2)5-7/h1,5-6H,4H2,2H3	InChI=1S/C6H8O/c1-3-4-6(2)5-7/h1,5-6H,4H2,2H3/t6-/m0/s1
