16
gdb 1347	4.32251	2.36837	2.31433	1.4328	60.43	-0.2471	0.0256	0.2727	681.1161	0.137006	-325.800949	-325.793924	-325.79298	-325.83194	25.909	
C	 0.0623076865	 1.478696286	 0.0546286553	-0.413044
C	-0.0392318252	-0.0495549381	-0.0141540792	 0.282676
C	-1.5048542399	-0.4981472712	-0.0531056125	-0.41298
C	 0.7874285523	-0.6410771962	-1.199778177	-0.14202
O	 1.790515531	-1.4722385768	-0.5713759222	-0.221769
C	 1.5599805179	-1.3609704025	 0.7590895036	 0.113357
N	 0.6157943782	-0.6342029691	 1.1838799006	-0.28748
H	 1.1084863824	 1.7963076022	 0.0968099158	 0.117875
H	-0.4035242156	 1.9390318536	-0.8237767031	 0.110411
H	-0.4420898546	 1.8522665415	 0.9497900108	 0.128683
H	-2.0121339466	-0.091862786	-0.9352160607	 0.110413
H	-1.575432195	-1.5895113638	-0.0866124066	 0.117907
H	-2.0317404698	-0.1512592896	 0.8398258443	 0.128634
H	 0.1926706053	-1.2710433431	-1.8677243634	 0.114427
H	 1.3002247917	 0.1226709797	-1.7918610469	 0.114419
H	 2.2419798814	-1.9359293865	 1.3764620011	 0.138491
59.0015	217.0443	254.6468	293.6942	332.7752	377.5747	390.7537	592.5227	613.2992	796.9901	833.4994	926.356	929.4401	963.2944	964.9606	969.978	988.9813	1036.0458	1116.568	1197.5252	1199.3308	1248.977	1267.7749	1323.2801	1372.1907	1396.9579	1418.574	1477.3355	1485.2439	1495.3836	1504.3518	1519.8591	1707.3734	3031.2416	3035.1321	3047.7874	3093.7458	3102.0592	3105.9347	3118.5653	3122.3758	3210.4109
CC1(C)COC=N1	CC1(C)COC=N1	
InChI=1S/C5H9NO/c1-5(2)3-7-4-6-5/h4H,3H2,1-2H3	InChI=1S/C5H9NO/c1-5(2)3-7-4-6-5/h4H,3H2,1-2H3
