12
gdb 327	5.48874	2.75881	1.95689	0.6022	56.95	-0.2622	0.034	0.2962	627.8377	0.093567	-232.02593	-232.019028	-232.018084	-232.056008	24.829	
C	-0.0152335599	 1.5474173404	 0.0168684475	-0.378918
C	-0.0247514957	-0.0011215432	-0.0433970058	-0.312952
C	-1.3943952137	-0.5246264461	 0.0068194169	 0.344774
C	-2.5241421879	-0.9277145914	 0.0647362519	-0.467692
C	 0.6939504927	-0.489493262	-1.2255410292	 0.344777
C	 1.3004706311	-0.8634037915	-2.1922267902	-0.467698
H	 1.0143451862	 1.9133058477	 0.0190137386	 0.128779
H	-0.5337281167	 1.962524094	-0.849947562	 0.140146
H	-0.5198926586	 1.8875036055	 0.9243771442	 0.128778
H	 0.5061932779	-0.3709490588	 0.8457972444	 0.139212
H	-3.5192911902	-1.295492876	 0.1098435913	 0.200397
H	 1.8296978349	-1.2057416085	-3.0468245177	 0.200397
133.8705	198.1371	206.5864	238.7065	349.377	471.6317	560.1171	562.8776	632.1429	634.1152	646.921	649.3114	789.2878	929.1147	1027.6308	1073.6449	1135.5824	1298.7011	1322.0852	1403.6939	1488.9176	1496.2601	2239.7507	2245.6763	3001.4481	3052.6604	3133.7572	3140.0413	3504.1059	3505.0123
CC(C#C)C#C	CC(C#C)C#C	
InChI=1S/C6H6/c1-4-6(3)5-2/h1-2,6H,3H3	InChI=1S/C6H6/c1-4-6(3)5-2/h1-2,6H,3H3
