20
gdb 291	4.19798	2.86549	1.86359	0.	66.87	-0.3016	0.0822	0.3838	747.1084	0.187721	-236.916033	-236.907667	-236.906723	-236.94792	30.606	
C	-0.0472555341	 1.5510882716	 0.0492507433	-0.395193
C	-0.0260455657	 0.0152493992	-0.0093790867	 0.066264
C	-1.4671752371	-0.5158801271	 0.0517797722	-0.395195
C	 0.7463140396	-0.5168200016	-1.2453803242	 0.066264
C	 2.187405522	 0.0144061	-1.306568704	-0.395193
C	 0.7676280759	-2.052659925	-1.3039808532	-0.395195
H	 0.953475785	 1.9797001573	 0.143391442	 0.113247
H	-0.5082397625	 1.9706767329	-0.8536263597	 0.10894
H	-0.6335300699	 1.8962095977	 0.9073022502	 0.10711
H	 0.5040967015	-0.347837545	 0.8847854294	 0.065527
H	-2.0252392623	-0.2376639689	-0.8509431349	 0.108941
H	-1.5081041662	-1.6035990696	 0.1478218923	 0.113246
H	-1.9986940983	-0.0909982897	 0.9097087723	 0.107112
H	 0.2161390202	-0.1537808954	-2.1395448333	 0.065527
H	 2.7455107139	-0.2637875494	-0.4038645691	 0.10894
H	 2.7189311656	-0.4104237096	-2.1645191626	 0.10711
H	 2.2282560816	 1.1021306723	-1.402590654	 0.113247
H	 1.2286195675	-2.4722016364	-0.4010855392	 0.108941
H	-0.2330699771	-2.4813429149	-1.3981406287	 0.113246
H	 1.3539479005	-2.3977558383	-2.1620116922	 0.107112
56.5268	197.273	199.0411	213.5159	236.9313	303.8965	346.8439	383.8951	405.8049	423.2052	496.1379	755.8122	872.363	922.9581	930.0197	948.5008	959.9618	973.9076	1006.4482	1080.1923	1173.4224	1178.2654	1196.4232	1212.6957	1312.9057	1342.2692	1354.8054	1378.9785	1396.8159	1403.2085	1416.4203	1425.3801	1483.483	1485.6339	1491.6585	1501.5731	1504.9038	1506.4158	1509.606	1525.2582	2978.0211	2992.49	3023.9363	3025.0887	3028.5379	3031.0735	3085.9201	3086.0402	3091.9918	3093.4783	3104.6166	3107.9268	3118.5141	3119.1707
CC(C)C(C)C	CC(C)C(C)C	
InChI=1S/C6H14/c1-5(2)6(3)4/h5-6H,1-4H3	InChI=1S/C6H14/c1-5(2)6(3)4/h5-6H,1-4H3
