10
gdb 489	25.56861	1.4803	1.4239	0.0004	47.69	-0.3397	-0.0013	0.3384	748.3461	0.073373	-264.243028	-264.236876	-264.235932	-264.27298	20.047	
N	 0.0001337967	-1.164232913	-0.0040655288	-0.28663
C	-0.0218341207	-0.0094326278	 0.0021328627	 0.259589
C	-0.022018383	 1.4508524143	 0.0097774158	-0.331863
C	 1.4216431688	 2.0143091074	-0.0004928155	-0.331865
C	 1.4213717769	 3.4745821077	 0.0074499349	 0.259601
N	 1.3994242066	 4.6293804553	 0.0136628956	-0.286634
H	-0.5720076511	 1.8151920567	-0.8633153346	 0.179449
H	-0.555858681	 1.8059542341	 0.8965959841	 0.179451
H	 1.9716745171	 1.6498886199	 0.8725314688	 0.179448
H	 1.9554612497	 1.6593337955	-0.887381853	 0.179453
77.1915	131.8586	226.4078	374.7038	412.4333	518.8943	534.0122	769.643	935.4221	967.7463	1019.9863	1037.2353	1205.016	1289.1753	1310.1121	1375.2802	1466.7635	1475.974	2368.2151	2369.8461	3059.6186	3069.2258	3096.5501	3115.7776
N#CCCC#N	N#CCCC#N	
InChI=1S/C4H4N2/c5-3-1-2-4-6/h1-2H2	InChI=1S/C4H4N2/c5-3-1-2-4-6/h1-2H2
