9
gdb 1024	9.73534	2.0068	1.66383	4.6457	50.44	-0.2774	-0.0473	0.2302	654.9897	0.057283	-338.273553	-338.268409	-338.267465	-338.302609	18.024	
N	 0.023445823	-1.1405935149	-0.0036360064	-0.324129
C	 0.0111498351	 0.0161545686	 0.0027163477	 0.22643
C	-0.0327173722	 1.434613391	 0.0109196997	 0.153127
C	-1.1330827421	 2.236276603	 0.0303181944	-0.082659
O	-0.7079352099	 3.5220479358	 0.0313555184	-0.125294
C	 0.6477342935	 3.4360135706	 0.0123519268	 0.085086
N	 1.11188872	 2.234080479	-0.000369746	-0.287412
H	-2.1944716785	 2.0607864229	 0.0439068518	 0.181952
H	 1.1926584412	 4.3664069541	 0.0099014836	 0.172899
181.1714	183.0574	508.3227	566.2852	578.0208	639.5625	708.5351	813.8286	860.9202	932.1221	987.5452	1091.2861	1144.5322	1241.1913	1265.6013	1340.4873	1560.8307	1587.6705	2361.6591	3286.8634	3304.9721
N#CC1=COC=N1	N#Cc1cocn1	
InChI=1S/C4H2N2O/c5-1-4-2-7-3-6-4/h2-3H	InChI=1S/C4H2N2O/c5-1-4-2-7-3-6-4/h2-3H
