14
gdb 4272	3.88552	1.86029	1.26096	6.9905	68.16	-0.2073	-0.0043	0.203	896.7107	0.110101	-378.780318	-378.773503	-378.772559	-378.811015	26.525	
N	 0.0977210845	 1.4054946608	 0.1433722993	-0.587539
C	-0.0092531198	 0.0167649967	 0.0370756546	 0.434989
C	-1.1734693888	-0.6865677881	 0.0112026377	-0.33791
C	-1.2039996848	-2.1453208494	-0.0108023005	 0.392258
O	-2.2419996812	-2.8011734517	-0.0287825862	-0.410508
C	 0.130870843	-2.7646013626	-0.0328271779	-0.246865
C	 1.2522232313	-2.0180866096	-0.0118165976	 0.021466
N	 1.1973913671	-0.6423156195	 0.0136317715	-0.369529
H	 0.7362083704	 1.8200029168	-0.5257978054	 0.250743
H	-0.8020413304	 1.863155749	 0.0907820151	 0.262403
H	-2.1214029454	-0.1613659398	-0.0087314904	 0.09208
H	 0.1893245978	-3.8451689976	-0.0670227733	 0.109183
H	 2.252289656	-2.4351059899	-0.0185551035	 0.128885
H	 2.0341957104	-0.114690885	 0.2003306466	 0.260344
166.929	201.8438	282.3923	340.5057	406.7562	473.855	490.0921	525.3187	538.8204	626.0322	724.0661	740.8487	767.6274	826.7126	867.8857	931.6172	953.8284	997.3718	1079.8705	1140.9947	1232.7282	1239.1962	1264.4798	1389.2331	1431.6139	1536.7539	1633.6618	1653.7883	1697.1146	1730.2757	3198.057	3198.7457	3222.2813	3531.3233	3635.6625	3650.5289
NC1=CC(=O)C=CN1	Nc1cc(=O)cc[nH]1	
InChI=1S/C5H6N2O/c6-5-3-4(8)1-2-7-5/h1-3H,(H3,6,7,8)	InChI=1S/C5H6N2O/c6-5-3-4(8)1-2-7-5/h1-3H,(H3,6,7,8)
