17
gdb 4456	3.47908	1.74725	1.18186	1.3325	73.53	-0.1733	0.0465	0.2198	1017.9641	0.141659	-363.905498	-363.896893	-363.895949	-363.9383	31.278	
C	 0.1634824734	 1.456090076	 0.0204205039	-0.494111
C	-0.0559153541	-0.0127033686	 0.0174169137	 0.24922
C	-1.1500858026	-0.8180827281	 0.0514810827	 0.20564
C	-2.5890275565	-0.4092659422	 0.1127422633	-0.506212
C	-0.6607494599	-2.1773498127	 0.0105425016	-0.365041
C	 0.6950630377	-2.085812337	-0.0395237045	 0.366971
N	 1.7264376826	-3.0174147426	-0.0117069294	-0.595275
O	 1.0894855274	-0.7914716993	-0.0362065552	-0.213271
H	 0.7620570717	 1.7782327095	 0.8814983846	 0.130764
H	 0.6868414179	 1.7940095225	-0.8828008176	 0.127934
H	-0.7954288853	 1.9773305266	 0.0656885228	 0.1304
H	-3.1506637284	-0.7895251195	-0.7489473871	 0.124408
H	-3.0791870345	-0.8032560082	 1.0110421824	 0.126128
H	-2.7016585112	 0.6781606539	 0.1258918459	 0.119602
H	-1.248775876	-3.0817337787	 0.0177854531	 0.08819
H	 1.4313668123	-3.9290126969	-0.3334471758	 0.252474
H	 2.5399706357	-2.7063532547	-0.5283053642	 0.25218
107.0843	139.1435	177.0186	185.4849	211.7042	264.0288	286.1945	352.5354	478.5864	591.2191	633.8317	639.261	661.0525	720.2897	746.0193	800.2657	954.5018	986.3284	1035.7233	1058.332	1065.8715	1105.567	1149.9677	1200.7982	1242.1704	1347.5961	1408.1684	1424.6918	1452.2244	1469.8556	1481.5803	1494.9153	1498.0576	1617.3745	1664.8097	1693.2449	3017.0134	3023.9132	3060.1275	3069.6206	3109.1326	3123.7238	3250.1731	3540.1122	3641.7849
CC1=C(C)C=C(N)O1	Cc1c(C)cc(N)o1	
InChI=1S/C6H9NO/c1-4-3-6(7)8-5(4)2/h3H,7H2,1-2H3	InChI=1S/C6H9NO/c1-4-3-6(7)8-5(4)2/h3H,7H2,1-2H3
