12
gdb 1212	8.18194	1.34626	1.17285	2.8236	52.25	-0.2944	-0.0087	0.2857	933.1813	0.088176	-360.557419	-360.549757	-360.548813	-360.590769	24.653	
C	-0.1368839592	 1.448579793	 0.0113689408	-0.480072
C	 0.0643577292	-0.0437325952	 0.001817971	 0.44093
O	 1.1144245759	-0.6293408886	-0.012303871	-0.335691
O	-1.1352486963	-0.6867439856	 0.0097637825	-0.231314
C	-1.0331521985	-2.1133875853	 0.000657206	-0.198242
C	-2.3874383647	-2.6628371332	 0.0107377995	 0.267714
N	-3.4413377943	-3.1336288078	 0.0177157792	-0.288208
H	 0.833556394	 1.9427302058	 0.0054114452	 0.15698
H	-0.7194541284	 1.7521856376	-0.8628146294	 0.160954
H	-0.7041666362	 1.7430412767	 0.8986116138	 0.160885
H	-0.4933108397	-2.4545651796	-0.8887531552	 0.173051
H	-0.4764895317	-2.4646068978	 0.8756543676	 0.173012
33.2544	61.44	136.8194	172.7561	275.9413	377.2774	384.6764	551.9248	604.0512	635.8345	905.0134	957.8606	1015.5356	1016.5291	1066.9597	1073.7315	1246.7119	1252.3572	1382.8683	1403.0537	1468.0496	1473.6575	1483.4991	1835.5427	2377.0379	3056.2081	3060.4082	3095.2556	3126.3785	3174.0399
CC(=O)OCC#N	CC(=O)OCC#N	
InChI=1S/C4H5NO2/c1-4(6)7-3-2-5/h3H2,1H3	InChI=1S/C4H5NO2/c1-4(6)7-3-2-5/h3H2,1H3
