11
gdb 2621	15.96205	0.91202	0.87585	1.8692	68.96	-0.25	-0.0424	0.2075	1195.3475	0.075151	-306.070291	-306.062773	-306.061829	-306.102582	25.31	
O	 0.0540032915	-0.1483921387	 0.1165781519	-0.222928
C	 0.0410842731	 1.0145627963	-0.1758058425	 0.171463
C	 1.2864812319	 1.9103563696	-0.1130440146	-0.448242
C	 1.3214802408	 2.8958740634	-1.177014809	 0.373964
C	 1.3144379118	 3.6982050245	-2.0826616382	-0.262999
C	 1.3130195066	 4.6035521182	-3.0982114163	 0.294275
C	 1.3110435655	 5.4070431496	-3.9993264218	-0.536655
H	-0.8848531978	 1.5365909937	-0.4978393224	 0.103175
H	 1.2612805519	 2.4140981953	 0.8660012488	 0.165972
H	 2.1715635644	 1.2653011865	-0.1153749608	 0.165523
H	 1.3102339703	 6.1132750017	-4.7922418552	 0.196452
49.1136	95.9527	148.1609	226.3955	341.3145	444.3142	450.6319	535.2841	545.5953	595.7966	605.7455	693.3853	785.7289	1022.2007	1040.0708	1177.5899	1208.4339	1287.766	1413.3142	1434.8318	1842.4987	2184.4363	2365.9127	2911.8226	2999.438	3077.2513	3504.5265
O=CCC#CC#C	O=CCC#CC#C	
InChI=1S/C6H4O/c1-2-3-4-5-6-7/h1,6H,5H2	InChI=1S/C6H4O/c1-2-3-4-5-6-7/h1,6H,5H2
