14
gdb 2022	7.88001	1.82132	1.69926	3.7355	58.95	-0.2402	0.0366	0.2768	740.9905	0.113406	-324.580266	-324.573809	-324.572865	-324.610643	24.278	
O	 0.0536783583	-0.0123147082	 0.0039420679	-0.360023
C	-0.0218455037	 1.1859399418	 0.0111367971	 0.438174
C	-1.160956287	 2.2425992579	 0.0316789524	-0.477002
C	-0.0256265223	 3.2797171348	 0.0213521091	 0.426969
C	 0.0883806868	 4.5626542694	-0.7358210821	-0.326433
C	 0.1104120944	 4.5538932245	 0.7896362836	-0.326399
N	 0.9267591362	 2.1836068047	 0.0010825286	-0.378029
H	-1.7981098434	 2.2281199779	-0.8545173744	 0.134127
H	-1.7735553076	 2.2191953413	 0.9348249972	 0.134038
H	 1.020767978	 4.7730112723	-1.2498040239	 0.118627
H	-0.7935778985	 4.947149714	-1.2374573998	 0.123496
H	-0.7566206128	 4.9324483831	 1.320933921	 0.123498
H	 1.0572869199	 4.758525241	 1.2788547161	 0.118617
H	 1.9353285719	 2.1535897254	-0.0123265528	 0.250338
68.2643	264.9515	279.1968	319.317	457.5131	497.8638	527.3923	559.6406	760.6002	778.6336	841.0982	890.3726	919.4846	947.0783	1000.6833	1032.2486	1054.9212	1075.187	1133.2139	1136.6447	1183.9822	1191.9035	1269.448	1308.7851	1424.3894	1457.8275	1460.8475	1514.6789	1900.3631	3083.5892	3126.5656	3129.8118	3142.1951	3206.2628	3220.551	3614.0736
O=C1CC2(CC2)N1	O=C1CC2(CC2)N1	
InChI=1S/C5H7NO/c7-4-3-5(6-4)1-2-5/h1-3H2,(H,6,7)	InChI=1S/C5H7NO/c7-4-3-5(6-4)1-2-5/h1-3H2,(H,6,7)
