14
gdb 1289	6.16306	1.41514	1.23322	2.9228	50.55	-0.271	0.0498	0.3209	931.339	0.11291	-398.888473	-398.880552	-398.879608	-398.921543	27.28	
N	-0.2177139892	 1.2667393317	-0.1679344613	-0.562417
C	 0.0154675661	-0.076149867	-0.0640907186	 0.500643
O	 1.1014906693	-0.6027578173	-0.0663814155	-0.390444
O	-1.1657265913	-0.7452972119	 0.0100077356	-0.276692
C	-1.0575353953	-2.1799345022	 0.0621321084	-0.067294
C	-2.4780436917	-2.7119623253	 0.0177652879	-0.067827
O	-3.139935853	-2.3681619636	-1.183423679	-0.41844
H	 0.5771764502	 1.8644056872	-0.0194778485	 0.270944
H	-1.1253623337	 1.6229034751	 0.0788769172	 0.263389
H	-0.4761987538	-2.529452515	-0.7953852557	 0.132159
H	-0.5414794047	-2.4798462005	 0.9802524189	 0.117591
H	-2.4503512992	-3.8054331144	 0.0651679126	 0.116503
H	-3.0295568354	-2.3524794428	 0.9012346839	 0.093422
H	-3.0592704083	-1.412461744	-1.2754684958	 0.288462
34.1757	93.0458	171.0591	212.5612	300.6659	355.2082	392.314	455.737	499.3701	525.0234	666.7159	783.2112	834.5851	901.6311	987.8375	1071.6773	1108.6724	1117.2285	1130.8854	1234.9742	1262.3708	1337.1027	1387.5951	1413.29	1435.4151	1497.9988	1503.9753	1613.4393	1841.5769	2982.0726	3051.9898	3082.5696	3109.9444	3613.8229	3742.0626	3809.9073
NC(=O)OCCO	NC(=O)OCCO	
InChI=1S/C3H7NO3/c4-3(6)7-2-1-5/h5H,1-2H2,(H2,4,6)	InChI=1S/C3H7NO3/c4-3(6)7-2-1-5/h5H,1-2H2,(H2,4,6)
