14
gdb 4756	7.2118	1.27083	1.08787	7.3756	68.27	-0.2391	-0.0354	0.2037	1032.0622	0.108105	-378.76879	-378.761421	-378.760477	-378.801227	25.487	
C	 0.0031364008	 1.4625676333	 0.0254649253	-0.342013
N	-0.0078339588	 0.0110737235	 0.0167800683	 0.011004
C	-0.1121780275	-0.8029473951	-1.0865494658	 0.011747
N	-0.093379321	-2.0712814306	-0.7799658252	-0.296117
C	 0.0294471985	-2.1056679126	 0.5954447421	 0.168424
C	 0.0925969472	-3.3294054607	 1.3950939027	 0.084874
O	 0.0468753401	-4.4592552842	 0.9705190937	-0.268293
C	 0.0831980727	-0.8194059347	 1.0971530251	-0.168216
H	 0.9379508649	 1.841725652	 0.4479448947	 0.153623
H	-0.0866410299	 1.8212000536	-1.0012693934	 0.154065
H	-0.8359787954	 1.8542161136	 0.6073896838	 0.153618
H	-0.1983828608	-0.3879570435	-2.0810644012	 0.136639
H	 0.1917073566	-3.12724211	 2.4879936683	 0.055301
H	 0.1758006526	-0.4408654445	 2.1028088816	 0.145345
51.9683	103.4322	182.0581	218.3215	310.7557	344.0784	481.0446	630.4533	696.6126	698.282	771.9824	789.8007	844.2574	991.5036	1029.7038	1059.1044	1078.2506	1150.5385	1165.432	1260.8365	1346.9753	1368.9769	1404.8701	1442.443	1461.3257	1483.872	1511.3348	1541.4924	1571.6448	1808.7667	2847.0325	3046.9847	3112.4237	3143.1614	3239.0793	3263.924
CN1C=NC(C=O)=C1	Cn1cnc(C=O)c1	
InChI=1S/C5H6N2O/c1-7-2-5(3-8)6-4-7/h2-4H,1H3	InChI=1S/C5H6N2O/c1-7-2-5(3-8)6-4-7/h2-4H,1H3
