9
gdb 751	10.19566	3.95813	2.90382	4.7538	40.22	-0.3198	-0.0474	0.2723	426.1476	0.062337	-313.537245	-313.532152	-313.531208	-313.567192	15.918	
C	-0.0114602799	 1.4582896267	 0.0048962884	-0.322579
N	 0.0052336124	 0.0058744052	-0.0005887435	 0.176662
N	 0.2916270536	-0.729739999	-1.0617858524	-0.121502
N	 0.1964218707	-1.9597902644	-0.6558333693	-0.077365
N	-0.1463663174	-1.9665610588	 0.6462167983	-0.080172
N	-0.2665409698	-0.7416557309	 1.0583574342	-0.111878
H	 0.9729909862	 1.8348683331	-0.2771351547	 0.176763
H	-0.7599149749	 1.8176444251	-0.7032093995	 0.176517
H	-0.2634328708	 1.775173143	 1.0155327585	 0.183553
18.2024	235.8347	362.3729	710.5029	717.3021	766.0527	978.1351	1018.6877	1105.3525	1147.2828	1153.7861	1229.4384	1257.2957	1397.0848	1414.091	1455.6323	1478.235	1504.0119	3074.6775	3153.6019	3185.2315
CN1N=NN=N1	Cn1nnnn1	
InChI=1S/CH3N5/c1-6-4-2-3-5-6/h1H3	InChI=1S/CH3N5/c1-6-4-2-3-5-6/h1H3
