15
gdb 3381	5.89593	1.87461	1.82143	3.4535	61.75	-0.2378	-0.0185	0.2192	739.2945	0.125638	-308.494487	-308.488209	-308.487265	-308.524703	23.508	
O	-0.0275852545	 0.0107855582	-0.2831021143	-0.270495
C	 0.000520705	 1.1499355163	 0.1205238837	 0.147649
C	 1.2183448462	 1.992466464	 0.109731308	-0.093079
C	 1.2384982933	 3.4858030505	-0.1851817227	-0.067092
C	 0.0037795934	 4.2110769541	 0.3700710041	-0.23502
C	 0.3738301041	 3.6934789678	 1.8003161656	-0.235044
C	 1.5971459275	 2.9845899338	 1.2005034072	-0.067033
H	-0.9175933007	 1.623535798	 0.5285472823	 0.071516
H	 2.0734336835	 1.4641785111	-0.3025194383	 0.107775
H	 1.885888467	 3.8562444878	-0.9708421029	 0.099149
H	 0.1009626739	 5.2960732938	 0.2959934339	 0.113082
H	-0.9686567974	 3.9266852704	-0.0402919089	 0.108172
H	 0.6616261327	 4.5116779178	 2.4635405332	 0.113072
H	-0.3570358186	 3.0711602772	 2.3232666836	 0.108188
H	 2.5695380648	 2.9007315193	 1.6706293655	 0.099161
102.4504	200.2101	248.876	344.7188	426.871	522.9328	703.0174	783.2187	785.3938	806.8585	922.4229	941.6464	947.8032	990.2858	1019.7234	1032.5719	1048.9141	1084.242	1106.2067	1141.7155	1209.1268	1218.2538	1239.5722	1259.2678	1303.5156	1327.7154	1382.1172	1462.0901	1485.1432	1507.4821	1807.5983	2900.1033	3061.1215	3067.8514	3104.3504	3122.26	3160.5052	3178.9502	3191.6485
O=CC1C2CCC12	O=C[C@H]1[C@H]2CC[C@@H]12	
InChI=1S/C6H8O/c7-3-6-4-1-2-5(4)6/h3-6H,1-2H2	InChI=1S/C6H8O/c7-3-6-4-1-2-5(4)6/h3-6H,1-2H2/t4-,5+,6-
