12
gdb 4320	3.94735	2.04144	1.34556	7.0037	60.37	-0.2482	-0.0444	0.2037	826.7272	0.084898	-414.729823	-414.722901	-414.721956	-414.76131	24.965	
N	-0.0131562265	 1.345002294	 0.007989816	-0.549739
C	 0.0114489014	-0.0037012277	 0.0008196094	 0.43035
N	-1.1457008259	-0.6288816332	 0.0040385604	-0.412005
C	-1.2021394147	-1.9835772658	-0.0027567101	 0.435334
O	-2.1722359185	-2.6799246146	-0.0010429033	-0.340793
O	 0.0648184056	-2.705345759	-0.0137759849	-0.219687
C	 1.2071969574	-2.0354781217	-0.0166613625	 0.120398
C	 1.2761204702	-0.690196545	-0.0099361385	-0.264953
H	 0.8275786239	 1.8925695691	 0.0063046989	 0.270157
H	-0.9081419723	 1.8055959483	 0.015570829	 0.277114
H	 2.0759781124	-2.6873674231	-0.0250212431	 0.144788
H	 2.2251291972	-0.1727334413	-0.0125628213	 0.109036
88.6744	115.3029	197.6615	358.6176	394.3315	514.0189	541.3084	572.7202	587.8979	669.1307	746.0178	783.6814	789.4832	825.7756	965.4649	979.3777	1023.9765	1116.6774	1230.2066	1310.1603	1378.4409	1508.3274	1560.1993	1634.2843	1698.301	1890.0438	3182.7116	3229.9546	3616.4084	3756.5457
NC1=NC(=O)OC=C1	Nc1nc(=O)occ1	
InChI=1S/C4H4N2O2/c5-3-1-2-8-4(7)6-3/h1-2H,(H2,5,6,7)	InChI=1S/C4H4N2O2/c5-3-1-2-8-4(7)6-3/h1-2H,(H2,5,6,7)
