12
gdb 647	6.23406	4.83811	4.45696	1.7949	49.13	-0.2346	0.0008	0.2354	397.1306	0.098138	-269.175627	-269.171364	-269.17042	-269.20288	17.166	
C	-0.0553232145	 1.5904726659	-0.0559880972	-0.21091
C	 1.4723396498	 1.2852965378	 0.0152301462	 0.025676
O	 1.1433773636	 0.1807824039	 0.9228284297	-0.282835
C	-0.0064360487	 0.033787306	 0.0238474242	 0.025635
C	 0.6831566488	-0.3234622434	-1.3084905559	-0.073305
C	 1.7014570122	 0.5386816861	-1.314565313	-0.073371
H	-0.4364390475	 2.0471422209	 0.8603355096	 0.108549
H	-0.4586871415	 2.0609102379	-0.955069739	 0.097725
H	 2.2205053207	 1.9803499773	 0.3934061013	 0.081469
H	-0.8130284804	-0.5869528495	 0.4110896396	 0.081461
H	 0.3824545094	-1.0772843152	-2.0204719636	 0.109954
H	 2.4896171581	 0.7066763223	-2.0330137319	 0.109953
466.0564	527.2898	607.2701	707.8702	755.0569	817.1124	827.8968	864.7735	884.6186	911.2407	933.4496	934.9519	1003.8898	1043.4584	1081.153	1151.3287	1157.7226	1226.6233	1240.1032	1255.0899	1298.4502	1309.3314	1484.1057	1615.6295	3064.2886	3135.2703	3136.3297	3140.149	3234.8099	3262.2598
C1C2OC1C=C2	C1[C@H]2O[C@@H]1C=C2	
InChI=1S/C5H6O/c1-2-5-3-4(1)6-5/h1-2,4-5H,3H2	InChI=1S/C5H6O/c1-2-5-3-4(1)6-5/h1-2,4-5H,3H2/t4-,5+
