17
gdb 1671	4.40787	1.6484	1.41801	1.3506	60.59	-0.241	-0.0106	0.2304	904.0776	0.145414	-346.874234	-346.865253	-346.864308	-346.90804	30.722	
C	 0.0604656153	 1.4970067144	 0.1348956386	-0.399486
C	-0.0352876696	-0.0351955489	-0.0222068434	-0.070034
C	-1.4909946138	-0.5021231608	-0.0230185586	-0.076555
O	-2.0495327025	-0.1686690954	 1.2408501142	-0.428478
C	 0.6705421771	-0.4745446174	-1.302914839	 0.379859
C	 2.1811344034	-0.6122059069	-1.2392594022	-0.479826
O	 0.0535506442	-0.701751243	-2.320362744	-0.308538
H	 1.0958578558	 1.8343139735	 0.2364259382	 0.11384
H	-0.3791335688	 1.9994689139	-0.7333407167	 0.126548
H	-0.492210596	 1.8016982235	 1.0255918832	 0.14568
H	 0.4734019479	-0.4964326756	 0.834533414	 0.088977
H	-2.0280859197	-0.0156473759	-0.8483146902	 0.105322
H	-1.53113091	-1.5865182736	-0.2037284739	 0.091866
H	-2.9877143515	-0.3763487672	 1.2167214746	 0.288643
H	 2.6437747077	 0.258933224	-0.7649190465	 0.137515
H	 2.4377392363	-1.4818415868	-0.6219906027	 0.143322
H	 2.5855194442	-0.7533326777	-2.2423010156	 0.141346
45.2265	103.9299	124.153	194.8243	209.0851	245.4909	257.1281	317.8046	360.1608	466.3899	591.2749	602.1157	791.8647	882.5868	930.9286	954.0589	991.9606	1045.5948	1082.9959	1124.5292	1152.9247	1182.2596	1254.861	1265.6411	1332.5328	1354.5736	1383.8104	1399.2206	1456.1806	1463.0251	1475.7359	1492.8981	1507.0007	1518.2714	1802.3592	2991.1619	3021.4224	3035.5859	3039.6038	3042.9508	3099.2383	3110.3742	3136.7415	3151.9461	3836.8551
CC(CO)C(C)=O	C[C@@H](CO)C(=O)C	
InChI=1S/C5H10O2/c1-4(3-6)5(2)7/h4,6H,3H2,1-2H3	InChI=1S/C5H10O2/c1-4(3-6)5(2)7/h4,6H,3H2,1-2H3/t4-/m0/s1
