21
gdb 2102	4.18988	2.17139	1.5773	0.083	74.12	-0.2876	0.0864	0.374	861.7683	0.197495	-275.020322	-275.013135	-275.012191	-275.050946	28.642	
C	-0.0305870097	 1.564748987	 0.0107416915	-0.402984
C	 0.0202163939	 0.0342021416	 0.0020363117	 0.060797
C	 0.6980414192	-0.5056601893	-1.2694005765	-0.174716
C	 0.7686783695	-2.0395510531	-1.283105527	-0.196145
C	 1.4630495158	-2.5812094767	-0.0257868533	-0.175738
C	 0.7928691476	-2.0531569469	 1.2503064205	-0.196145
C	 0.7221404239	-0.5192146718	 1.2544269589	-0.174716
H	 0.9799713329	 1.9906701876	 0.0033813226	 0.109902
H	-0.559191791	 1.9516103794	-0.8673154938	 0.1069
H	-0.5422918081	 1.9421029658	 0.9028354852	 0.1069
H	-1.0152778544	-0.3404868927	 0.0099114199	 0.064547
H	 0.1673643102	-0.1422094772	-2.1578969731	 0.084416
H	 1.7169531275	-0.0948341244	-1.3287303736	 0.086642
H	-0.2506713835	-2.4472761049	-1.3360231052	 0.089795
H	 1.2874596124	-2.3861747255	-2.1843005721	 0.086747
H	 1.4611333679	-3.677223795	-0.0316549275	 0.086488
H	 2.5178453367	-2.272040428	-0.0341984081	 0.089707
H	-0.2253259335	-2.4615316719	 1.318297199	 0.089795
H	 1.3287288063	-2.409385713	 2.1376564019	 0.086747
H	 1.7420413907	-0.1089449505	 1.2986984246	 0.086642
H	 0.2085633255	-0.1653814005	 2.1567467869	 0.084416
151.6356	216.117	240.1183	305.3816	324.7069	403.0989	435.8289	445.9929	539.6465	772.8023	791.5141	849.3959	857.1841	878.2291	919.5823	973.7665	980.7101	982.1992	1040.8256	1070.1832	1092.0567	1106.4196	1119.3911	1189.2449	1225.2667	1275.9638	1287.874	1289.3298	1335.6747	1337.1252	1369.3077	1376.1881	1379.929	1383.0434	1398.6977	1413.0022	1479.1531	1484.9776	1486.9358	1490.5452	1497.0089	1499.8389	1506.2372	2978.5758	2996.4008	3003.179	3006.4318	3008.8234	3012.9817	3022.4804	3047.993	3050.8761	3057.1349	3058.0325	3064.1493	3087.8096	3093.3334
CC1CCCCC1	CC1CCCCC1	
InChI=1S/C7H14/c1-7-5-3-2-4-6-7/h7H,2-6H2,1H3	InChI=1S/C7H14/c1-7-5-3-2-4-6-7/h7H,2-6H2,1H3
