17
gdb 1916	5.69634	2.04985	1.80069	1.0968	63.93	-0.2465	0.083	0.3295	755.4915	0.147979	-309.688191	-309.681127	-309.680183	-309.718614	27.422	
C	-0.0994940595	 1.5689062689	 0.069163768	-0.40214
C	 0.0672572844	 0.054832511	 0.0272606329	 0.044496
C	 1.1364042853	-0.5655305635	-0.9446040365	-0.319708
C	 1.7788117689	-1.267742644	 0.2588368801	 0.41036
O	 2.224187418	-2.57914266	 0.246585822	-0.464472
C	 2.2253740576	-0.2688852087	 1.2858273639	-0.341534
C	 0.7599886958	-0.6538927322	 1.2043897271	-0.117584
H	 0.8511091796	 2.0783225695	 0.2588634428	 0.113089
H	-0.4927347495	 1.9464348398	-0.8811785949	 0.112743
H	-0.7974430511	 1.8654809531	 0.8599384937	 0.113974
H	-0.9050055773	-0.4105387436	-0.1622593316	 0.076678
H	 0.6955306673	-1.2730033813	-1.6502067459	 0.106785
H	 1.7722920449	 0.138234265	-1.4939838217	 0.085457
H	 3.1602989974	-2.5775851432	 0.018553167	 0.283173
H	 2.744834262	-0.7077965436	 2.1320676555	 0.110518
H	 2.572694537	 0.7237870887	 1.007958526	 0.100856
H	 0.257090979	-1.100811226	 2.0536856218	 0.087309
151.4163	223.4921	237.0018	255.3132	377.1826	398.6314	406.3047	509.5432	598.6959	690.9391	798.6312	844.9241	879.3863	907.6389	958.7642	971.0993	993.3423	1018.0409	1064.3714	1085.6687	1098.2667	1119.1701	1181.9983	1220.5651	1235.8236	1255.1629	1303.6368	1318.8502	1365.1781	1400.1684	1417.9851	1476.3615	1495.0937	1496.9497	1507.939	3027.6592	3036.458	3049.8996	3092.3222	3097.4778	3104.1572	3110.5564	3181.8596	3198.7496	3792.5164
CC1CC2(O)CC12	C[C@H]1C[C@@]2(O)C[C@@H]12	
InChI=1S/C6H10O/c1-4-2-6(7)3-5(4)6/h4-5,7H,2-3H2,1H3	InChI=1S/C6H10O/c1-4-2-6(7)3-5(4)6/h4-5,7H,2-3H2,1H3/t4-,5-,6+/m0/s1
