15
gdb 3730	6.79423	2.01952	1.73776	2.2096	62.93	-0.2366	0.0261	0.2626	747.651	0.127378	-304.724717	-304.718192	-304.717248	-304.755771	23.551	
C	-0.0203687273	 1.5299640749	-0.1696337519	-0.37156
C	-0.0520460156	 0.0286552924	 0.1173601747	-0.140893
N	-1.3933739219	-0.5265707884	 0.0373791094	 0.068234
C	-1.9189306984	-1.3082388247	-0.9382651525	-0.031037
C	-3.2367310968	-1.5412274905	-0.601085621	-0.234531
C	-3.4114833634	-0.84480128	 0.6110924949	 0.001413
N	-2.2944167968	-0.2297970848	 0.9946080292	-0.2692
H	 1.0003940525	 1.9112982671	-0.0695990334	 0.118024
H	-0.3716411666	 1.7423407754	-1.1837737995	 0.124179
H	-0.6630137066	 2.0599711464	 0.5370020207	 0.149936
H	 0.5680616996	-0.5211329334	-0.5963582928	 0.116953
H	 0.3323020044	-0.1754178364	 1.1210687799	 0.132012
H	-1.3230296459	-1.6343116351	-1.7763879763	 0.125663
H	-3.9559189162	-2.1307740159	-1.1457923842	 0.10208
H	-4.298740111	-0.7698710771	 1.2228648526	 0.108727
44.9361	141.0686	224.0449	357.5859	403.5014	632.7247	666.4983	687.4382	762.7554	793.8241	826.2495	889.5329	933.9382	958.3849	999.1382	1062.9944	1095.1117	1115.1373	1118.6511	1235.3691	1274.2988	1322.9316	1372.0634	1396.8633	1408.9135	1429.2018	1479.3282	1488.3953	1490.3075	1508.383	1557.1335	3045.3063	3058.7226	3101.0411	3118.5913	3137.8683	3242.1556	3254.3504	3277.5609
CCN1C=CC=N1	CCn1cccn1	
InChI=1S/C5H8N2/c1-2-7-5-3-4-6-7/h3-5H,2H2,1H3	InChI=1S/C5H8N2/c1-2-7-5-3-4-6-7/h3-5H,2H2,1H3
