10
gdb 2562	3.79096	2.61463	1.73874	4.2269	52.95	-0.3062	-0.0372	0.269	674.7042	0.067274	-318.339586	-318.333317	-318.332373	-318.369804	21.809	
N	 0.0637713511	-1.1174643817	 0.0124391173	-0.312858
C	 0.0024604216	 0.036660092	 0.0195166003	 0.248753
C	-0.0278765711	 1.4824210009	 0.0330903118	 0.043684
C	 0.5329020944	 2.1698310596	 1.2550811543	-0.241383
N	 1.2594894951	 2.2181335486	-0.0011572939	-0.307655
C	-1.1164431656	 2.0889740522	-0.7041779224	 0.281508
N	-1.9968159161	 2.5774186039	-1.2696017416	-0.310352
H	 0.0737801525	 3.1047553894	 1.5590513548	 0.167854
H	 0.8762324565	 1.5226896724	 2.0566524149	 0.159845
H	 2.0287376616	 1.5517696328	-0.0171727755	 0.270605
137.0059	213.879	226.27	237.2881	489.1927	509.6756	595.133	609.4961	627.5946	825.6413	909.846	944.0634	990.9617	1091.2597	1145.8609	1238.0678	1304.2677	1334.3978	1502.6082	2361.1907	2372.6584	3126.6378	3226.8112	3510.2476
N#CC1(CN1)C#N	N#CC1(CN1)C#N	
InChI=1S/C4H3N3/c5-1-4(2-6)3-7-4/h7H,3H2	InChI=1S/C4H3N3/c5-1-4(2-6)3-7-4/h7H,3H2
