15
gdb 4804	6.52018	1.27492	1.08076	2.3448	64.67	-0.1776	0.0393	0.2169	1045.8651	0.120515	-396.011062	-396.003109	-396.002165	-396.043543	28.896	
N	 0.0264588946	 1.3884119563	 0.0856776035	-0.598455
C	-0.0258159992	-0.0089100722	 0.0352023046	 0.280284
C	-1.1172960662	-0.8438703811	 0.1013660982	-0.193754
N	-0.5808018782	-2.1234920745	 0.0856793166	-0.255262
C	 0.7621654698	-2.0009689657	 0.0036984749	 0.35983
C	 1.6648015846	-3.1922418964	-0.0007491045	-0.191537
O	 0.8791314269	-4.3268230292	-0.3510841889	-0.42959
N	 1.1376276222	-0.7366983868	-0.0294720571	-0.366499
H	 0.9111841785	 1.719937544	-0.2772731108	 0.245602
H	-0.7381661875	 1.8362906534	-0.401646409	 0.238288
H	-2.1770091565	-0.6643837441	 0.1534802429	 0.111472
H	-1.0706019657	-3.0018186605	 0.0720649118	 0.269619
H	 2.4839839195	-3.0191668004	-0.7128654714	 0.121122
H	 2.1204893942	-3.3221534733	 0.9938073007	 0.113052
H	 1.388828293	-5.1173672696	-0.1549255215	 0.295829
55.2874	173.3084	202.184	216.2506	245.1433	324.1233	361.3836	496.1822	551.7507	631.6572	658.6773	666.9275	709.8915	743.4843	790.114	1007.508	1016.46	1034.5306	1075.8932	1102.3318	1112.9571	1207.1733	1229.397	1283.1248	1315.9917	1409.3544	1447.735	1502.8557	1516.0039	1571.1858	1621.2115	1647.0673	2973.588	3017.7058	3282.1204	3540.2216	3635.5241	3678.0419	3845.6352
NC1=CNC(CO)=N1	Nc1c[nH]c(CO)n1	
InChI=1S/C4H7N3O/c5-3-1-6-4(2-8)7-3/h1,8H,2,5H2,(H,6,7)	InChI=1S/C4H7N3O/c5-3-1-6-4(2-8)7-3/h1,8H,2,5H2,(H,6,7)
