13
gdb 2908	5.26608	2.324	1.98515	3.2989	56.06	-0.2331	-0.0293	0.2039	661.7507	0.101195	-344.454928	-344.448616	-344.447672	-344.485643	22.144	
O	 0.1662124329	-0.0685755488	-0.2059292826	-0.229567
C	 0.0588548064	 1.112688025	-0.02738418	 0.152165
C	 1.2336939725	 2.0855271281	 0.1123456714	-0.009466
O	 2.4696792898	 1.416818625	 0.2317521711	-0.248055
C	 3.2557582494	 1.6206332359	-0.9422523916	-0.113921
C	 2.5042061061	 2.6509944851	-1.7371929309	-0.078493
C	 1.3560309093	 2.9366303944	-1.1344634132	-0.109372
H	-0.9373985749	 1.6132999989	 0.0379799104	 0.06751
H	 1.0466692727	 2.6918559628	 1.0159488272	 0.102051
H	 4.260006091	 1.9562977468	-0.6468781244	 0.113702
H	 3.3721281274	 0.6757488699	-1.4949333184	 0.121177
H	 2.8727210837	 3.0722747475	-2.6636300186	 0.115788
H	 0.5918999637	 3.6286104595	-1.4621433304	 0.116483
70.2575	128.2194	250.2017	289.0466	440.3145	688.4706	702.754	768.9837	788.9555	844.1977	929.6372	956.0466	979.0327	991.4559	1036.403	1048.5519	1121.9071	1157.4765	1199.6853	1254.6262	1328.4865	1345.5668	1381.6974	1417.2221	1514.8849	1683.3384	1849.7066	2839.7241	2955.1881	2988.4196	3016.6289	3214.0009	3238.5868
O=CC1OCC=C1	O=C[C@H]1OCC=C1	
InChI=1S/C5H6O2/c6-4-5-2-1-3-7-5/h1-2,4-5H,3H2	InChI=1S/C5H6O2/c6-4-5-2-1-3-7-5/h1-2,4-5H,3H2/t5-/m0/s1
