9
gdb 31	28.0016	4.67752	4.21765	3.9233	35.38	-0.3213	0.034	0.3553	314.5335	0.07419	-172.006141	-172.001467	-172.000523	-172.032826	14.988	
C	-0.0252200485	 1.5477305416	 0.0213336953	-0.373327
C	 0.0118393932	 0.0099927783	-0.015567022	-0.307059
C	 0.6891511448	-0.5083684569	-1.2033148798	 0.256037
N	 1.2256573268	-0.9036084609	-2.1473748203	-0.303521
H	 0.9857161992	 1.9621298952	 0.0237015347	 0.1439
H	-0.5552219223	 1.9459966209	-0.8471177123	 0.143916
H	-0.5396255565	 1.8829435366	 0.9253660368	 0.129448
H	 0.5248190962	-0.3822604798	 0.8693335453	 0.155281
H	-1.0045354229	-0.398321085	 0.0053007123	 0.155324
213.8214	220.4599	403.4032	551.6414	786.3792	841.0344	1016.6067	1090.3322	1112.3916	1284.2397	1344.0063	1412.8228	1470.0931	1495.5889	1504.4558	2362.9946	3048.4566	3055.3256	3083.1009	3132.5737	3136.0672
CCC#N	CCC#N	
InChI=1S/C3H5N/c1-2-3-4/h2H2,1H3	InChI=1S/C3H5N/c1-2-3-4/h2H2,1H3
