16
gdb 1305	3.34258	2.61605	2.18632	2.4752	60.92	-0.2387	-0.0216	0.2172	706.0824	0.135221	-325.778234	-325.770634	-325.76969	-325.809559	27.754	
C	-0.2574973948	 1.5796932229	 0.0681268413	-0.410789
C	 0.0297544806	 0.0816588753	 0.022593963	 0.19913
C	-1.2255268616	-0.7371694314	-0.2953853151	-0.436969
N	 1.2321132585	-0.2720347889	-0.8076435153	-0.353861
C	 1.8919958515	-1.0077834785	 0.3045165295	-0.287192
C	 0.7957740008	-0.4805079514	 1.2409843246	 0.363155
O	 0.608466668	-0.4803491069	 2.4207111401	-0.294569
H	 0.6592227864	 2.1432879898	 0.2578161142	 0.124765
H	-0.6721041205	 1.918453405	-0.887395239	 0.117324
H	-0.9792907454	 1.8065171756	 0.8590560303	 0.127246
H	-1.6116331117	-0.4655903612	-1.284652962	 0.123175
H	-1.0182491719	-1.8124694356	-0.2914333937	 0.116626
H	-2.012130632	-0.5420641869	 0.439648992	 0.137755
H	 1.006955611	-0.8622255775	-1.6009722036	 0.217544
H	 1.8888371644	-2.1040217263	 0.2301486758	 0.123103
H	 2.9132597466	-0.679105004	 0.5259847479	 0.13356
101.2698	171.6613	190.2203	222.3599	275.3094	345.9139	384.026	507.7043	530.3185	641.429	708.023	744.3119	899.9551	932.7256	952.3573	977.0771	1000.6828	1019.941	1058.0281	1127.3476	1183.7219	1204.9887	1266.2877	1286.6131	1365.7264	1392.021	1412.7401	1473.1052	1476.3974	1480.8865	1498.4004	1502.2045	1909.3654	3012.7831	3026.3863	3036.3314	3068.1337	3094.5634	3105.5765	3111.1775	3124.1758	3532.9466
CC1(C)NCC1=O	CC1(C)NCC1=O	
InChI=1S/C5H9NO/c1-5(2)4(7)3-6-5/h6H,3H2,1-2H3	InChI=1S/C5H9NO/c1-5(2)4(7)3-6-5/h6H,3H2,1-2H3
