16
gdb 1522	7.86826	1.27011	1.11642	2.4553	58.89	-0.2574	0.0395	0.297	1044.6029	0.135138	-362.918463	-362.909853	-362.908909	-362.952175	28.916	
C	-0.1716638795	 1.4988607635	 0.0092833924	-0.389748
C	-0.0002218027	-0.0084523745	 0.0015707863	-0.028847
O	-1.3120724785	-0.5938213828	 0.0128202318	-0.251965
C	-1.3673678892	-1.9385645785	 0.0097853141	 0.399891
N	-0.3395876996	-2.6752827135	-0.0025260497	-0.528647
C	-2.8159882423	-2.3834163208	 0.0229605565	-0.16498
O	-2.8455146667	-3.7947697827	 0.0200899061	-0.413689
H	 0.8087012333	 1.9845045939	 0.0007535778	 0.120287
H	-0.7295432323	 1.8336993451	-0.8700365006	 0.125414
H	-0.7107022432	 1.8267888418	 0.9028439998	 0.125413
H	 0.538115725	-0.3571610941	-0.8859986114	 0.11973
H	 0.5563777978	-0.3642152299	 0.8749271319	 0.119835
H	-0.6331457501	-3.651647448	-0.0022245062	 0.24034
H	-3.3012241146	-1.9566025663	 0.9138947128	 0.11508
H	-3.3184806391	-1.9526382306	-0.8564290152	 0.115087
H	-3.7629066184	-4.0802295425	 0.0271681437	 0.296798
52.1731	82.1557	121.2808	161.3888	178.6124	253.3272	318.7804	364.5367	457.3638	561.6966	671.4207	807.7475	884.3072	893.4059	921.9556	1045.1703	1052.8098	1117.4311	1130.9129	1139.3945	1184.3859	1216.6289	1239.7758	1288.4751	1359.9428	1401.8786	1421.9254	1468.4869	1485.6582	1496.9559	1503.38	1522.6587	1745.5372	2984.877	3013.7609	3044.3132	3047.3053	3082.9106	3118.7892	3122.2357	3503.5363	3849.4367
CCOC(=N)CO	CCO[C]([NH])CO	
InChI=1S/C4H9NO2/c1-2-7-4(5)3-6/h5-6H,2-3H2,1H3	InChI=1S/C4H9NO2/c1-2-7-4(5)3-6/h5-6H,2-3H2,1H3
