12
gdb 2124	3.68913	3.23624	1.80482	3.3467	50.7	-0.2199	-0.0939	0.126	652.3785	0.090604	-360.526225	-360.520067	-360.519123	-360.556546	21.993	
O	-0.0342658329	 0.0347353287	-0.2337931708	-0.271759
C	-0.0682844571	 1.2176901957	-0.0342477655	 0.306991
C	-1.2626483973	 2.1146588214	 0.2706415038	-0.292152
N	-0.8282398698	 3.4883409712	-0.0529875295	-0.299802
C	 0.6144648511	 3.5570836005	 0.2541342569	-0.292152
C	 1.1703229654	 2.1694657613	-0.0451190506	 0.306993
O	 2.3023811107	 1.8302592819	-0.2542669236	-0.271761
H	-2.1492342036	 1.8205891598	-0.2943577814	 0.145901
H	-1.51248103	 2.0442535773	 1.33929946	 0.143348
H	-0.9550302091	 3.6419510245	-1.04839973	 0.235143
H	 1.1205854676	 4.333193408	-0.3231289862	 0.145901
H	 0.7586281449	 3.7894548096	 1.3193210669	 0.143349
89.075	162.4696	303.8453	353.1624	490.5384	563.4098	616.928	666.7377	695.7102	803.2077	871.7577	967.3981	970.9178	1052.2936	1089.2624	1149.2534	1162.1152	1282.0121	1284.1939	1331.9943	1451.0548	1460.0837	1463.6311	1849.8215	1863.6775	3008.4184	3010.9689	3118.5371	3118.9721	3519.2787
O=C1CNCC1=O	O=C1CNCC1=O	
InChI=1S/C4H5NO2/c6-3-1-5-2-4(3)7/h5H,1-2H2	InChI=1S/C4H5NO2/c6-3-1-5-2-4(3)7/h5H,1-2H2
