16
gdb 591	10.98354	1.8194	1.73248	0.9952	57.69	-0.2424	0.0952	0.3376	757.9582	0.14199	-271.611192	-271.60423	-271.603286	-271.641993	24.716	
C	 0.0180131647	 1.4578126521	-0.0626846295	-0.383936
C	-0.1336723322	-0.0384390389	-0.2765970555	-0.032294
O	 1.0488506075	-0.5238742738	-0.8923751063	-0.246648
C	 1.0241697292	-1.8947649377	-1.1270614521	 0.153662
C	 0.3577785407	-2.4189683434	-2.375339794	-0.287443
C	 1.8700467675	-2.3926970895	-2.2520977156	-0.286918
H	 0.8809102437	 1.66894796	 0.5753212493	 0.126612
H	 0.1669237508	 1.9689161859	-1.0182373894	 0.125174
H	-0.87682555	 1.8679560624	 0.414998519	 0.113487
H	-0.2957928533	-0.5524268158	 0.6854201001	 0.084943
H	-1.0071274351	-0.2576648751	-0.9105057162	 0.08896
H	 0.9546702082	-2.5036119611	-0.2237310137	 0.079384
H	-0.1557409728	-3.3733920258	-2.3359035641	 0.110469
H	-0.0922594435	-1.6846292259	-3.0341054001	 0.11762
H	 2.3978108127	-1.6391070359	-2.8251813204	 0.124554
H	 2.4038024119	-3.3277918777	-2.1259751115	 0.112374
83.9738	112.5203	186.0121	247.0013	358.3425	420.1021	476.0262	755.8494	813.5298	820.3163	824.3067	900.6662	972.4974	997.5899	1048.9015	1069.4559	1085.2334	1129.4798	1150.1994	1188.4453	1193.5044	1209.4419	1244.4161	1294.7367	1374.5151	1405.1691	1438.4477	1453.1803	1483.828	1498.6648	1500.539	1529.8653	2965.2573	2997.4719	3044.5728	3082.599	3118.6562	3121.0161	3134.6914	3141.631	3219.2471	3234.3052
CCOC1CC1	CCOC1CC1	
InChI=1S/C5H10O/c1-2-6-5-3-4-5/h5H,2-4H2,1H3	InChI=1S/C5H10O/c1-2-6-5-3-4-5/h5H,2-4H2,1H3
