16
gdb 4100	3.03359	1.92201	1.19605	1.953	73.57	-0.1831	-0.0051	0.178	973.6951	0.130823	-379.899514	-379.891634	-379.89069	-379.931464	29.391	
C	-0.0471952741	 1.5171081278	 0.0562090837	-0.501296
C	-0.0195802271	 0.0245744511	 0.0155035137	 0.194673
C	 0.0001314236	-0.7911228248	-1.0634313342	-0.100848
N	 0.1571580134	-2.138681043	-0.7547405938	-0.316928
C	 0.0456955536	-2.2740315	 0.7049295603	-0.261133
C	 0.034156103	-0.8345397439	 1.1874093826	 0.339391
N	 0.0818599241	-0.4166946202	 2.3987238785	-0.264654
O	 0.1017295754	-1.5211655597	 3.2847745747	-0.403351
H	 0.8523931045	 1.9189359501	 0.5373714694	 0.133143
H	-0.1147658977	 1.9410011857	-0.949672654	 0.112888
H	-0.8995943943	 1.8793094339	 0.6420164292	 0.132559
H	-0.0419262112	-0.4951832522	-2.1046940824	 0.119089
H	-0.3635509486	-2.8000419151	-1.3126472652	 0.24052
H	-0.8738025274	-2.7922799707	 1.0058947081	 0.131748
H	 0.8869833045	-2.8309110369	 1.1306223276	 0.14082
H	 0.1579764682	-1.0891645121	 4.1431723619	 0.303378
139.0294	165.5253	184.2428	212.2563	296.3197	328.6101	357.9113	458.0524	546.8576	559.1327	595.3772	618.7225	734.6067	861.4906	891.7101	972.2188	976.3105	989.0784	1030.2342	1070.0092	1109.7067	1159.3384	1182.6227	1246.6068	1335.9075	1340.1068	1418.9411	1422.1636	1437.6528	1473.6071	1482.5211	1499.1252	1678.0088	1712.6354	3026.409	3028.7221	3070.735	3075.0373	3109.9302	3212.0524	3591.1369	3824.1889
CC1=CNCC1=NO	CC1=C(CN[CH]1)[N]O	
InChI=1S/C5H8N2O/c1-4-2-6-3-5(4)7-8/h2,6,8H,3H2,1H3	InChI=1S/C5H8N2O/c1-4-2-6-3-5(4)7-8/h2,6,8H,3H2,1H3
