14
gdb 2791	4.34946	2.40341	1.66231	2.707	54.58	-0.2663	0.0156	0.282	723.7666	0.114394	-361.705069	-361.698442	-361.697498	-361.735803	23.972	
O	-0.0640310339	 1.4445274807	 0.1526508065	-0.419618
C	 0.0419408144	 0.0632692534	-0.1016754795	-0.069832
C	-1.3425885157	-0.5910184826	-0.0875311361	-0.153636
C	-1.4741429126	-2.1211608697	 0.0759646753	-0.113457
O	-2.1185374328	-1.9295688112	 1.3816014671	-0.250676
C	-1.9801931825	-0.5663374203	 1.282709742	 0.454288
N	-2.2186164668	 0.3587592735	 2.0992042733	-0.558206
H	-0.5856754425	 1.5459911693	 0.9627333559	 0.302543
H	 0.5116014675	-0.0478955345	-1.0848004282	 0.111529
H	 0.6894899691	-0.4444207902	 0.6335404903	 0.088796
H	-1.9713704963	-0.1602144667	-0.8697152328	 0.119272
H	-2.1425451684	-2.6345698498	-0.6176756489	 0.1286
H	-0.5388692688	-2.6754834254	 0.1897615746	 0.126882
H	-2.5930043408	 0.0116213435	 2.9831556306	 0.233517
119.683	136.2493	203.9613	302.429	406.6002	469.8673	529.7153	671.3679	755.7107	809.5706	860.6047	896.7833	951.2003	1002.7185	1039.9879	1071.7456	1091.662	1135.8324	1163.3695	1196.5566	1238.1708	1262.258	1315.0033	1377.5221	1389.7598	1453.9935	1511.7407	1514.753	1812.5709	2959.3858	3065.8679	3067.2406	3097.4511	3129.4484	3483.4885	3718.751
OCC1COC1=N	OC[C@H]1CO[C]1[NH]	
InChI=1S/C4H7NO2/c5-4-3(1-6)2-7-4/h3,5-6H,1-2H2	InChI=1S/C4H7NO2/c5-4-3(1-6)2-7-4/h3,5-6H,1-2H2/t3-/m0/s1
