15
gdb 2200	3.57419	2.53247	1.82212	0.9851	57.86	-0.2511	-0.0299	0.2213	742.7165	0.122875	-345.661657	-345.654119	-345.653175	-345.693378	26.476	
C	-0.2671189229	 1.2721232466	-1.4280320101	-0.402406
C	 0.2536113376	-0.059176789	-0.9178725444	 0.038175
O	 1.6383147221	-0.3246297609	-1.2589579135	-0.31277
C	 2.0513298081	-0.546700424	 0.1137442636	 0.038175
C	 3.2050822638	 0.3304967096	 0.5644800469	-0.402406
C	 0.6318917443	-0.1720657765	 0.5669559501	 0.313958
O	 0.0824407107	 0.0100982266	 1.6105283233	-0.27888
H	 0.3615639837	 2.0977355357	-1.0837654778	 0.127274
H	-0.2806296623	 1.2791881378	-2.5217750387	 0.135539
H	-1.2875602934	 1.4335086043	-1.0671541079	 0.135799
H	-0.3980104468	-0.8834838602	-1.2440888344	 0.104466
H	 2.276891772	-1.6088908964	 0.2908977833	 0.104466
H	 2.9750133762	 1.3889932713	 0.4159849448	 0.127274
H	 3.4066341642	 0.1604758896	 1.6265762654	 0.135798
H	 4.1083680726	 0.0889498854	-0.0031785107	 0.135539
76.4038	174.8391	188.8453	190.7288	214.3877	379.6189	388.1244	495.1308	601.3725	692.3115	803.5901	864.0375	871.035	969.7986	1018.1085	1059.2473	1085.4219	1106.1875	1127.6664	1148.6547	1256.0696	1292.3417	1324.2443	1375.4692	1396.4322	1400.0286	1478.0088	1482.8049	1491.3253	1496.2363	1918.4018	2995.1222	3001.5837	3042.6364	3043.4542	3119.2815	3119.4663	3122.6128	3124.8335
CC1OC(C)C1=O	C[C@H]1O[C@@H](C)C1=O	
InChI=1S/C5H8O2/c1-3-5(6)4(2)7-3/h3-4H,1-2H3	InChI=1S/C5H8O2/c1-3-5(6)4(2)7-3/h3-4H,1-2H3/t3-,4+
