17
gdb 4774	5.84834	1.21695	1.08105	1.4957	72.19	-0.1873	0.0318	0.219	1120.7969	0.142881	-363.893707	-363.88558	-363.884636	-363.926441	30.085	
C	 0.1470100905	 1.5605799478	-0.1354221732	-0.370316
C	-0.0668872956	 0.0528582932	 0.0842408665	-0.291194
C	 0.5699609144	-0.4605092494	 1.3301289583	 0.395839
C	 0.0729451164	-1.0168891489	 2.4691511384	-0.351605
C	 1.1976909518	-1.2978211952	 3.3196682291	 0.231473
N	 1.1370773627	-1.9488563346	 4.5613256759	-0.604874
C	 2.2960608763	-0.8848615581	 2.62734633	-0.102903
O	 1.9231691434	-0.3772068012	 1.407458862	-0.191395
H	 1.2136437796	 1.795568678	-0.1848135821	 0.132357
H	-0.3190281871	 1.8865041142	-1.0703146022	 0.110623
H	-0.2874620316	 2.1402079749	 0.6848284734	 0.119164
H	-1.1368335604	-0.1731059002	 0.1350047009	 0.110854
H	 0.3286178528	-0.4963945143	-0.7802724914	 0.116101
H	-0.9660444218	-1.2174173055	 2.6832090377	 0.096985
H	 0.3362751594	-1.6614795083	 5.1094941845	 0.243053
H	 1.9759675781	-1.8206038682	 5.1124938728	 0.241256
H	 3.352455381	-0.8907352442	 2.8356590095	 0.114584
52.9095	132.7723	196.4703	217.9278	281.2881	302.8487	382.4822	442.2636	585.1536	623.4737	661.4791	693.9616	724.715	762.0008	783.3127	799.7641	939.9873	981.6398	1002.4732	1066.0317	1087.6801	1107.6941	1158.8836	1179.0485	1252.6481	1293.054	1338.4793	1356.882	1405.5951	1450.9062	1474.8635	1495.7249	1506.6326	1587.8733	1651.9696	1680.5787	3022.1648	3040.46	3077.912	3110.6285	3122.3031	3246.1987	3279.3201	3534.1603	3622.7058
CCC1=CC(N)=CO1	CCc1cc(N)co1	
InChI=1S/C6H9NO/c1-2-6-3-5(7)4-8-6/h3-4H,2,7H2,1H3	InChI=1S/C6H9NO/c1-2-6-3-5(7)4-8-6/h3-4H,2,7H2,1H3
