14
gdb 2024	7.59876	1.79373	1.66031	2.5522	58.1	-0.2424	-0.026	0.2165	746.2553	0.112831	-324.5518	-324.545426	-324.544482	-324.582384	23.914	
O	-0.0122072724	 0.2135529955	-0.7231936828	-0.285439
C	-0.014056395	 1.2589098785	-0.1436959845	 0.407684
C	-1.137090117	 2.1920086983	 0.3607688195	-0.430064
C	-0.0294827659	 3.1926459091	 0.7445803361	 0.347007
C	-0.062781579	 4.6620458637	 0.598839052	-0.299473
N	 0.0247203335	 4.0313399917	 1.9347102777	-0.355142
C	 1.0897590188	 2.211875463	 0.3514052205	-0.40296
H	-1.8611932162	 2.5026875029	-0.3982725468	 0.134614
H	-1.6818573312	 1.7658138306	 1.2115792448	 0.134165
H	 0.8298258739	 5.2006427784	 0.2913408896	 0.124162
H	-0.998931687	 5.127397698	 0.2996482544	 0.115837
H	-0.8847963729	 4.0571320456	 2.390324254	 0.232701
H	 1.6522538606	 1.8149592244	 1.2030780963	 0.142774
H	 1.7972173698	 2.5393414102	-0.4159060608	 0.134135
48.3875	285.8137	302.461	358.6865	417.0043	496.906	509.7515	660.1532	718.1034	817.3338	875.2799	886.1167	952.3044	964.2477	988.8036	1043.9787	1063.5295	1093.6891	1130.1741	1185.1466	1185.7652	1216.312	1265.8776	1287.2185	1406.6759	1420.8222	1445.3619	1515.4876	1901.1806	3040.9287	3054.9925	3098.7841	3102.6444	3108.4722	3187.7196	3491.0292
O=C1CC2(CN2)C1	O=C1CC2(CN2)C1	
InChI=1S/C5H7NO/c7-4-1-5(2-4)3-6-5/h6H,1-3H2	InChI=1S/C5H7NO/c7-4-1-5(2-4)3-6-5/h6H,1-3H2
