15
gdb 4915	6.71673	1.24645	1.06514	2.4648	62.53	-0.22	0.0282	0.2482	1073.3452	0.119097	-399.841106	-399.833545	-399.832601	-399.873264	27.584	
C	-0.8778458196	 0.9179266672	-0.040976064	-0.389053
C	 0.5580761659	 0.3890437207	-0.0640123595	-0.28077
C	 1.017184576	-0.1812574476	 1.238236773	 0.265594
C	 0.363649476	-0.2981481996	 2.4160173507	-0.134352
O	 1.2271972641	-0.898542942	 3.3242500439	-0.205158
C	 2.3498405728	-1.0966095509	 2.6025743435	 0.468063
O	 3.3784094249	-1.6709953249	 3.2243039565	-0.401478
N	 2.3110083646	-0.7066846031	 1.3768246612	-0.387584
H	-0.9944828993	 1.7182440476	 0.697232186	 0.120647
H	-1.1569623899	 1.3213855087	-1.0179549316	 0.118323
H	-1.5894865469	 0.1240758089	 0.2088865379	 0.120648
H	 0.6649025321	-0.3828741975	-0.8368416509	 0.122588
H	 1.2513515368	 1.1883789856	-0.3555049226	 0.122588
H	-0.6134877472	-0.0466837157	 2.7857177429	 0.142924
H	 3.1198291097	-1.8532479375	 4.1357366731	 0.317022
56.7903	178.7236	183.3269	260.2895	334.962	357.9897	362.0419	502.8807	635.6487	636.4253	686.6728	747.5161	763.3526	797.3011	960.6076	984.3497	1031.4549	1075.0071	1104.1144	1112.9776	1200.9495	1244.8485	1260.631	1279.4421	1382.6041	1411.2856	1434.176	1478.7089	1498.4681	1509.722	1642.9778	1703.4587	3026.0135	3037.467	3049.47	3103.0435	3114.7812	3309.5037	3817.3792
CCC1=COC(O)=N1	CCc1coc(O)n1	
InChI=1S/C5H7NO2/c1-2-4-3-8-5(7)6-4/h3H,2H2,1H3,(H,6,7)	InChI=1S/C5H7NO2/c1-2-4-3-8-5(7)6-4/h3H,2H2,1H3,(H,6,7)
