13
gdb 152	13.06284	3.49477	3.12333	1.0906	46.29	-0.244	0.0955	0.3395	452.0432	0.113725	-232.3174	-232.311743	-232.310798	-232.345925	19.738	
C	-0.2533142946	 1.213474707	 0.1157834484	-0.230793
O	 0.5103751942	 0.0542204424	-0.1454864689	-0.234086
C	 0.9522174589	-0.5747157439	 1.0149177352	 0.152979
C	 0.0327418325	-1.5344601753	 1.7288946691	-0.287031
C	 1.2111817604	-2.0413708562	 0.9178378943	-0.285657
H	 0.3304731178	 1.9693252771	 0.6635427447	 0.103863
H	-0.5495380807	 1.6293680624	-0.8502224175	 0.125421
H	-1.1550223997	 0.9838715743	 0.701903517	 0.107006
H	 1.6244219374	 0.0316146112	 1.6249837713	 0.08005
H	 0.0743375034	-1.5962027746	 2.8108395146	 0.110914
H	-0.9530954585	-1.6765787164	 1.3002594762	 0.11859
H	 0.9888364237	-2.5054754174	-0.0361017245	 0.125586
H	 2.0694324452	-2.4521709307	 1.4372243001	 0.113157
120.3004	200.0695	258.8696	402.5659	481.1206	750.3864	814.8384	818.9178	954.7771	971.3818	1047.3968	1071.1901	1097.1865	1128.4494	1173.1086	1185.2151	1193.4656	1234.0011	1257.0692	1391.2331	1453.379	1476.0861	1486.0959	1501.1197	1510.8264	2979.671	3029.7657	3082.4817	3116.2325	3135.0191	3142.5352	3219.8122	3235.0583
COC1CC1	COC1CC1	
InChI=1S/C4H8O/c1-5-4-2-3-4/h4H,2-3H2,1H3	InChI=1S/C4H8O/c1-5-4-2-3-4/h4H,2-3H2,1H3
