15
gdb 3439	4.52042	3.00906	2.17264	1.7843	60.76	-0.2448	0.0008	0.2456	637.9812	0.125974	-308.505718	-308.499699	-308.498755	-308.535243	23.372	
C	-0.0721336285	 1.5678577628	 0.0498928196	-0.393041
C	 0.0210292642	 0.0350029695	 0.0040641871	-0.054259
C	 0.8103595186	-0.4960572704	-1.1828592354	-0.0759
C	 1.8112763501	-1.3023166256	-0.8211321982	-0.091698
C	 1.8752484411	-1.3986660187	 0.6690304393	-0.000432
O	 2.1340830676	-0.1241573138	 1.3087817973	-0.257974
C	 0.7796753342	-0.5665667516	 1.1900245658	 0.033461
H	 0.927283781	 1.9989876919	 0.1483078155	 0.139676
H	-0.5335602473	 1.9613908556	-0.8611192527	 0.112735
H	-0.6760490787	 1.8972401849	 0.9013242302	 0.115454
H	-0.9973174267	-0.3798508844	-0.0128647121	 0.083465
H	 0.5831687353	-0.1930851188	-2.1998014418	 0.099445
H	 2.50965104	-1.7959747815	-1.4853603307	 0.101464
H	 2.2849260584	-2.2619196006	 1.1846038922	 0.095748
H	 0.2700599407	-0.7631621395	 2.1300466238	 0.091857
168.0178	232.1217	255.6827	405.1563	475.376	568.5571	693.5762	749.147	796.0054	828.0744	856.8079	867.1975	926.7956	953.7705	977.9629	1018.2213	1038.9995	1098.6794	1107.8649	1123.5918	1141.0635	1254.0121	1298.6515	1304.2739	1322.474	1376.1233	1397.4588	1419.606	1495.6693	1505.0331	1661.4302	3001.8388	3039.1291	3104.6329	3126.9607	3141.6953	3164.3505	3183.0861	3217.0783
CC1C=CC2OC12	C[C@H]1C=C[C@H]2O[C@@H]12	
InChI=1S/C6H8O/c1-4-2-3-5-6(4)7-5/h2-6H,1H3	InChI=1S/C6H8O/c1-4-2-3-5-6(4)7-5/h2-6H,1H3/t4-,5+,6-/m0/s1
