15
gdb 3529	7.26862	2.26827	2.21754	2.0114	60.05	-0.2296	0.0766	0.3061	645.2081	0.125192	-308.420805	-308.415132	-308.414188	-308.449929	22.499	
C	-0.1417036812	 1.6089335983	-0.0160604672	-0.41277
C	-0.0418276602	 0.0904720905	 0.0060146366	-0.016718
C	 1.1558542064	-0.594531647	-0.6962572995	-0.096598
C	 2.1085667267	-0.3536000281	 0.5202632939	 0.091832
O	 2.5348121214	-1.744246842	 0.6206376223	-0.330005
C	 1.1174726435	-1.8091284524	 0.2812658186	 0.090565
C	 0.7083870612	-0.5967659636	 1.1729484984	-0.096593
H	 0.8194320771	 2.0810487796	 0.2144056639	 0.114379
H	-0.4610552652	 1.9684502359	-1.0003429922	 0.118321
H	-0.8720735654	 1.9663882226	 0.717995505	 0.118322
H	-1.0109017123	-0.3668229067	-0.2265194393	 0.069407
H	 1.4371315	-0.6150411264	-1.7496062625	 0.079981
H	 2.8465912159	 0.4273361004	 0.6978709253	 0.095618
H	 0.6458446701	-2.7848355833	 0.1671983423	 0.094278
H	 0.4821960621	-0.6198027578	 2.2394329044	 0.07998
214.159	220.6339	280.8247	518.9826	546.3828	732.1497	749.3787	797.5558	823.5609	823.9132	871.6821	881.8702	913.7062	960.8198	1030.2419	1048.215	1057.1319	1110.5576	1121.8158	1136.4387	1153.7478	1173.7918	1174.9952	1185.2408	1254.8873	1281.5246	1336.8672	1399.5523	1417.2277	1494.5949	1501.3005	3028.8354	3033.8254	3093.453	3098.2655	3110.4468	3114.0674	3123.4184	3136.8836
CC1C2C3OC2C13	C[C@H]1[C@H]2[C@@H]3O[C@H]2[C@H]13	
InChI=1S/C6H8O/c1-2-3-5-4(2)6(3)7-5/h2-6H,1H3	InChI=1S/C6H8O/c1-2-3-5-4(2)6(3)7-5/h2-6H,1H3/t2-,3-,4+,5-,6+
