13
gdb 3671	7.70021	2.01856	1.61857	3.1721	56.75	-0.226	0.0088	0.2348	738.6505	0.102564	-340.641282	-340.63467	-340.633726	-340.671701	24.08	
C	 0.0373389873	 1.4907084041	-0.0053229929	-0.490685
C	-0.0838202212	 0.00821925	-0.0441341286	 0.45779
C	-1.1064773228	-0.848148972	 0.214358225	-0.409337
C	-0.5332884595	-2.1365690195	-0.0110619386	 0.419878
N	-1.1410491224	-3.3659349203	 0.187422581	-0.587961
N	 0.7253508484	-2.0548208073	-0.3845925732	-0.231054
O	 1.0144198562	-0.6799878735	-0.3945231387	-0.217817
H	 0.8098542895	 1.800476064	 0.706024529	 0.150948
H	 0.3175760683	 1.8862307669	-0.9871277355	 0.149476
H	-0.9112874907	 1.9404278674	 0.293430771	 0.138605
H	-2.1078462637	-0.6092809272	 0.5322376493	 0.10851
H	-2.1120599692	-3.3951883229	-0.0888182879	 0.252724
H	-0.6161804904	-4.1285921897	-0.2203903801	 0.258922
92.6901	189.948	268.6562	310.6483	368.8387	434.1186	601.3937	621.9984	657.4623	742.7376	764.9468	788.343	926.3838	1001.476	1022.5914	1038.9109	1064.6351	1142.442	1174.6256	1316.6448	1411.945	1473.5889	1480.4089	1506.5191	1548.9849	1641.0447	1670.7296	3042.4153	3098.9	3138.037	3270.4457	3554.0424	3653.7869
CC1=CC(N)=NO1	Cc1cc(N)no1	
InChI=1S/C4H6N2O/c1-3-2-4(5)6-7-3/h2H,1H3,(H2,5,6)	InChI=1S/C4H6N2O/c1-3-2-4(5)6-7-3/h2H,1H3,(H2,5,6)
