14
gdb 2386	4.74856	2.17547	1.74151	6.4106	54.14	-0.2475	0.0259	0.2734	721.2983	0.114969	-361.734668	-361.728151	-361.727206	-361.765081	24.43	
N	-0.0615677339	 1.1752965482	 0.000832261	-0.528786
H	-0.6879854724	 0.9183565312	-0.7553319384	 0.250894
H	 1.1218189796	 0.0806546446	 0.7728195209	 0.31132
H	 0.4650480417	 1.9914203907	-0.2956991998	 0.253766
C	-0.7985449928	 1.443182292	 1.219771211	-0.015629
C	-1.3375834243	 0.2604040934	 1.9582666777	-0.291667
C	-0.1625031666	 1.0324741132	 2.5401933396	-0.145462
C	 1.186654566	 0.3716612741	 2.6552295528	 0.41142
O	 1.786729795	 0.3477559786	 3.6986068209	-0.345254
O	 1.6667219904	-0.2115365049	 1.5452783122	-0.388624
H	-1.3891165794	 2.3573234904	 1.2521701069	 0.100683
H	-2.296644797	 0.3453292074	 2.4549530054	 0.131672
H	-1.1191956335	-0.7200203449	 1.5489508321	 0.137263
H	-0.3732737427	 1.6613164159	 3.3960182378	 0.118406
101.806	223.772	270.0742	325.6196	405.9634	442.1604	512.2906	653.3374	754.1117	785.7517	816.3486	855.6284	901.5357	931.855	965.4381	1025.8259	1043.7994	1074.7642	1137.0506	1169.604	1224.7797	1259.1215	1282.2974	1364.2321	1410.9332	1481.64	1484.2709	1652.7749	1849.9764	3111.2828	3143.3697	3197.1086	3234.1131	3297.9055	3498.8221	3576.3659
[NH3+]C1CC1C([O-])=O	N[C@H]1C[C@H]1C(=O)O	
InChI=1S/C4H7NO2/c5-3-1-2(3)4(6)7/h2-3H,1,5H2,(H,6,7)	InChI=1S/C4H7NO2/c5-3-1-2(3)4(6)7/h2-3H,1,5H2,(H,6,7)/t2-,3+/m1/s1
