14
gdb 988	3.79082	3.15201	1.73965	1.7284	59.45	-0.1843	0.0539	0.2382	695.8608	0.113814	-324.610229	-324.60306	-324.602116	-324.641094	26.093	
C	 0.0248368938	 1.5020571144	 0.0703953277	-0.532395
C	 0.0186446488	 0.0046804079	 0.0208196389	 0.160646
C	-0.0668237585	-0.8048971366	-1.0931773601	-0.156859
N	-0.038077796	-2.108709813	-0.6847977779	-0.240013
C	 0.065631885	-2.1712902429	 0.6895903193	-0.168216
C	 0.1019586622	-0.8742135686	 1.142709463	 0.234719
O	 0.2018967444	-0.5189164749	 2.4596627631	-0.449473
H	 0.9452928894	 1.900067237	 0.5187780023	 0.1206
H	-0.0504400704	 1.9272918844	-0.9342158905	 0.127299
H	-0.8164104778	 1.9029066043	 0.652034988	 0.120643
H	-0.1452478595	-0.5450960201	-2.137039954	 0.11279
H	-0.0854963523	-2.9061555539	-1.291813976	 0.259941
H	 0.1042804061	-3.1065138005	 1.2210201447	 0.116296
H	 0.2086924546	 0.4411035623	 2.5121996114	 0.294023
108.3092	167.4345	233.7393	237.8746	308.5632	398.8599	450.4875	622.5644	622.8479	630.1407	705.0282	734.121	740.3164	900.879	990.6735	1062.5329	1076.825	1122.2429	1177.8701	1233.2632	1287.9517	1359.9132	1416.6117	1436.3049	1481.4307	1484.435	1504.3787	1571.1913	1659.8742	3003.9581	3043.4414	3104.5443	3256.7979	3280.3277	3703.0805	3839.5963
CC1=CNC=C1O	Cc1c[nH]cc1O	
InChI=1S/C5H7NO/c1-4-2-6-3-5(4)7/h2-3,6-7H,1H3	InChI=1S/C5H7NO/c1-4-2-6-3-5(4)7/h2-3,6-7H,1H3
