13
gdb 531	18.36601	1.41178	1.34418	3.7667	51.25	-0.2751	0.0324	0.3075	842.1422	0.107193	-286.495416	-286.488353	-286.487409	-286.526586	22.978	
C	-0.0330184392	 1.3796001104	 0.0384864312	-0.234457
O	 0.0089876933	-0.0297947003	-0.0075755594	-0.230752
C	 0.6580767228	-0.5207301423	-1.1525488323	-0.04829
C	 0.6221861433	-2.0510895467	-1.0585355682	-0.338277
C	 1.2710224041	-2.6875915749	-2.2000605502	 0.247041
N	 1.7886169741	-3.1744690656	-3.1110240927	-0.301446
H	 0.9774868224	 1.8158806011	 0.0525742428	 0.112084
H	-0.5781467745	 1.7980774415	-0.8213811531	 0.112085
H	-0.5526532037	 1.6578534139	 0.9577810365	 0.13517
H	 0.1533375105	-0.1862386054	-2.0730165652	 0.110078
H	 1.7010114664	-0.1690799831	-1.2030218925	 0.110085
H	 1.1170628724	-2.3684928533	-0.1348259352	 0.163342
H	-0.4186742918	-2.3855474353	-0.9981999019	 0.163337
85.0106	107.9985	130.9546	226.0925	300.1814	399.9222	420.5052	546.2504	796.4555	944.2883	1003.8925	1055.3499	1092.6012	1164.5274	1181.8621	1227.6138	1233.3702	1300.1531	1307.7593	1422.7468	1470.6288	1481.622	1485.7903	1504.2691	1533.1481	2366.7051	2969.1967	2981.9164	3003.5709	3026.7339	3057.1898	3100.2095	3123.7633
COCCC#N	COCCC#N	
InChI=1S/C4H7NO/c1-6-4-2-3-5/h2,4H2,1H3	InChI=1S/C4H7NO/c1-6-4-2-3-5/h2,4H2,1H3
