13
gdb 3780	7.61804	2.08998	1.66417	3.9931	57.3	-0.2065	0.0175	0.224	718.8532	0.102917	-340.625366	-340.61887	-340.617926	-340.655883	23.074	
C	-0.0879011122	 1.4513183981	 0.0739528061	-0.329931
N	-0.0158637011	 0.0132618282	-0.1453816301	-0.386511
C	-1.1316478204	-0.7664363082	-0.0449584003	 0.527752
C	-1.3157632974	-2.1234294891	 0.0591916763	-0.381923
C	-2.7241493681	-2.2484396705	 0.0515774385	 0.053764
N	-3.3534939447	-1.1031237441	-0.0413242599	-0.169014
O	-2.3139308147	-0.1394191713	-0.1000448534	-0.217561
H	 0.8852183833	 1.8867279574	-0.1615709199	 0.130099
H	-0.8320078807	 1.8859526511	-0.5962125449	 0.160646
H	-0.3582587797	 1.7183257041	 1.1047727292	 0.129694
H	 0.8296545738	-0.4377481563	 0.1652026647	 0.253991
H	-0.5680520507	-2.8950483931	 0.1215005858	 0.103605
H	-3.3127881674	-3.1541481562	 0.112226548	 0.125388
96.5853	143.7755	218.3417	295.1013	420.3587	523.7526	625.8592	699.48	717.528	733.4577	889.5409	920.4841	931.2121	995.4413	1060.6883	1084.8256	1149.6913	1163.0213	1228.1306	1342.8339	1364.3835	1452.9778	1482.1008	1488.4143	1517.2733	1561.8943	1661.4335	3011.2275	3101.7886	3142.568	3233.7414	3281.7857	3635.6041
CNC1=CC=NO1	CNc1ccno1	
InChI=1S/C4H6N2O/c1-5-4-2-3-6-7-4/h2-3,5H,1H3	InChI=1S/C4H6N2O/c1-5-4-2-3-6-7-4/h2-3,5H,1H3
