16
gdb 3066	12.55772	1.05151	1.04482	2.7958	68.37	-0.228	0.0232	0.2512	1146.2956	0.135415	-325.753541	-325.745664	-325.744719	-325.786356	27.069	
C	 0.1080434151	 1.3552856594	 0.0789523208	-0.248226
O	-0.1544627114	-0.0332806694	-0.0687691814	-0.194999
C	 0.5418560578	-0.6550249312	-1.0431048204	 0.118528
N	 0.3824634475	-1.8854429351	-1.2566786194	-0.214531
C	 1.1407071515	-2.4886708181	-2.2956365165	 0.076654
C	 1.5821317281	-3.9197791485	-2.0905528246	-0.272314
C	 0.4850364525	-3.6071845705	-3.0728292594	-0.272326
H	 1.1581653928	 1.5424140715	 0.3360783184	 0.125534
H	-0.1444290959	 1.912923353	-0.8316426252	 0.125532
H	-0.5253703892	 1.703092026	 0.8958802332	 0.145597
H	 1.228923913	-0.0019917277	-1.6031254216	 0.072307
H	 1.823372301	-1.841681306	-2.8521931362	 0.070051
H	 2.5557332417	-4.209661612	-2.4698136591	 0.109548
H	 1.2997819074	-4.3787993326	-1.1507218704	 0.124544
H	-0.5301592759	-3.8573865407	-2.7891422181	 0.124545
H	 0.697412594	-3.680196438	-4.1336481202	 0.109555
46.8654	96.1299	151.1982	157.3137	247.1951	325.4453	439.5074	453.1534	566.3309	775.8692	820.5877	869.2426	921.9985	986.3078	989.7796	1053.9541	1060.1075	1071.134	1120.6113	1162.4401	1177.5959	1198.5838	1207.3396	1228.0085	1275.5561	1374.6262	1430.9004	1456.1307	1484.0716	1494.6755	1498.7037	1501.8799	1770.5686	2992.982	3013.0071	3061.1977	3071.5807	3138.4483	3142.5692	3143.232	3224.8906	3238.8011
COC=NC1CC1	COC=NC1CC1	
InChI=1S/C5H9NO/c1-7-4-6-5-2-3-5/h4-5H,2-3H2,1H3	InChI=1S/C5H9NO/c1-7-4-6-5-2-3-5/h4-5H,2-3H2,1H3
