10
gdb 1371	7.21285	1.56037	1.29131	4.1393	53.35	-0.2861	-0.0638	0.2223	833.2372	0.064516	-359.297643	-359.290682	-359.289738	-359.329189	23.293	
N	-0.0292034834	 1.4156406994	-0.14938591	-0.504284
C	 0.0039019986	 0.1489195186	-0.1275872899	 0.265956
O	-1.1397809223	-0.6033362305	-0.2277582774	-0.197833
C	-2.3530833971	-0.0161780414	 0.0723596348	 0.177649
O	-3.3685536813	-0.5995693599	-0.1296008938	-0.245132
C	 1.1659706995	-0.6819823985	-0.0292557618	 0.302634
C	 2.1674715761	-1.3417112797	 0.0509504171	-0.414899
H	 0.9075385027	 1.8028894772	-0.0580655964	 0.24996
H	-2.2399967463	 0.9828059127	 0.5104657519	 0.142228
H	 3.0498270735	-1.9303609879	 0.1227353254	 0.22372
77.9042	110.3122	159.0077	277.4194	289.4965	491.8221	536.0483	642.1049	676.5422	682.9137	731.7499	870.5186	935.5732	1041.0766	1061.2904	1083.1912	1336.0673	1401.7019	1693.9263	1877.6497	2238.0396	3082.3524	3495.7539	3526.9148
N=C(OC=O)C#C	[NH][C](OC=O)C#C	
InChI=1S/C4H3NO2/c1-2-4(5)7-3-6/h1,3,5H	InChI=1S/C4H3NO2/c1-2-4(5)7-3-6/h1,3,5H
