12
gdb 515	20.01298	1.29514	1.23498	3.9327	57.54	-0.2632	-0.0579	0.2053	914.8563	0.094355	-269.216495	-269.209287	-269.208342	-269.248873	22.875	
C	-0.037068669	 1.5639330551	-0.0183794078	-0.37017
C	 0.0127628531	 0.0258893593	 0.0201377582	-0.321765
C	 0.7081563685	-0.504945089	 1.1833915765	 0.122476
C	 1.2868562063	-0.9408678456	 2.1506001633	-0.004454
C	 1.9811997634	-1.4247079032	 3.3142145122	 0.020828
O	 2.1534551791	-2.5931326116	 3.5781688081	-0.2304
H	 0.9712795286	 1.9851604741	-0.0382080113	 0.134616
H	-0.5700010666	 1.9006376631	-0.9117944084	 0.124018
H	-0.5528486444	 1.958325929	 0.8608378454	 0.13462
H	-1.0053654307	-0.3841344547	 0.0043572893	 0.147193
H	 0.5018805212	-0.3574683931	-0.8847290533	 0.147216
H	 2.3629445906	-0.6224161033	 3.978694058	 0.095822
20.9138	100.2701	154.4753	209.4501	242.7359	410.1052	501.6923	569.7155	777.2136	792.9561	963.7366	1022.1172	1079.4395	1097.6642	1161.244	1281.4501	1346.0665	1410.1551	1423.5502	1460.2116	1495.2634	1503.907	1766.8481	2329.8061	2913.4076	3024.4323	3049.8189	3053.1929	3125.46	3129.5506
CCC#CC=O	CCC#CC=O	
InChI=1S/C5H6O/c1-2-3-4-5-6/h5H,2H2,1H3	InChI=1S/C5H6O/c1-2-3-4-5-6/h5H,2H2,1H3
