17
gdb 2411	4.97086	2.2475	1.89792	1.943	64.56	-0.2343	0.0892	0.3235	745.8129	0.147868	-309.651827	-309.645002	-309.644058	-309.682118	26.299	
C	-0.1687339477	 1.5646372237	 0.8000151512	-0.429884
C	-0.1268667306	 0.0778194348	 0.4973242899	 0.037026
C	 1.0362768835	-0.4860978399	-0.3685762524	 0.020699
O	 1.9696031899	-0.2123404326	 0.7503250348	-0.311854
C	 0.7774952258	-0.8459129061	 1.3630682063	 0.020722
C	 0.8222493089	-1.9084625412	 0.2264414883	 0.053467
C	-0.3388456774	-2.8202510589	-0.1364576712	-0.444012
H	 0.8314243812	 1.9381740474	 1.027018823	 0.138545
H	-0.5666513724	 2.1238589451	-0.0539431266	 0.112518
H	-0.8219718416	 1.7686311482	 1.6555743004	 0.112519
H	-1.1196652294	-0.3167523249	 0.2669821502	 0.06676
H	 1.3592131098	-0.1941599632	-1.3700761913	 0.085876
H	 0.7889432599	-0.9870813498	 2.4458708939	 0.085871
H	 1.7684947915	-2.4552518485	 0.2542487392	 0.083169
H	-1.3028043832	-2.3072470307	-0.1753191932	 0.121591
H	-0.16769308	-3.2799553294	-1.1159095932	 0.123491
H	-0.4244929782	-3.6330981539	 0.5928583207	 0.123497
174.1552	212.0322	235.0385	251.8202	330.8112	356.3375	583.1438	624.4528	741.8328	772.5475	779.5204	820.1107	859.9181	891.0779	1010.7156	1028.6001	1040.6282	1059.7071	1105.9609	1116.6447	1149.1726	1156.3284	1162.3986	1204.1482	1232.3877	1263.5481	1274.3746	1383.4005	1398.809	1406.66	1420.2494	1491.8344	1495.9812	1502.0477	1506.0498	3034.5555	3036.3346	3077.7059	3078.2075	3089.9098	3093.3199	3094.084	3102.1728	3120.2995	3137.5533
CC1C2OC1C2C	C[C@H]1[C@H]2O[C@@H]1[C@H]2C	
InChI=1S/C6H10O/c1-3-5-4(2)6(3)7-5/h3-6H,1-2H3	InChI=1S/C6H10O/c1-3-5-4(2)6(3)7-5/h3-6H,1-2H3/t3-,4-,5-,6+
