15
gdb 593	11.96296	1.78051	1.69355	2.561	54.33	-0.2447	0.0781	0.3228	746.2516	0.1312	-287.645651	-287.638806	-287.637862	-287.676543	23.382	
C	 0.1383806508	 1.3363323819	 0.0509656037	-0.224812
O	 0.2398422664	-0.0669870731	 0.0305473747	-0.228331
C	 0.4499306297	-0.5821480646	-1.2667287334	-0.075685
C	 0.487307546	-2.0836532866	-1.1975566274	 0.019412
C	 1.3554839423	-2.833645249	-2.1391170453	-0.246457
N	 1.6876194363	-2.7750361598	-0.7071722885	-0.304178
H	 1.0591422284	 1.8197053374	-0.3139953838	 0.101609
H	-0.7016597121	 1.6956684685	-0.5649735804	 0.103495
H	-0.0299316116	 1.6372009972	 1.0876934935	 0.129821
H	-0.3569970528	-0.253303557	-1.945470112	 0.089857
H	 1.3996215507	-0.2010538315	-1.6855319558	 0.074819
H	-0.4420495543	-2.5400385081	-0.8641090586	 0.099481
H	 1.0485095245	-3.8108083857	-2.5002356167	 0.120696
H	 1.9561304505	-2.2617743967	-2.8427752613	 0.108903
H	 2.4304359852	-2.098520063	-0.5454891286	 0.23137
81.5592	100.4922	187.1779	232.0545	350.0324	410.8496	493.6621	808.4241	836.8283	928.148	941.2914	995.5448	1018.492	1063.7349	1122.1987	1152.1536	1163.699	1179.8629	1218.5713	1226.493	1251.6243	1278.077	1312.9093	1377.7054	1445.7746	1480.2011	1484.8753	1499.3102	1514.1904	1520.2169	2931.0778	2962.7576	2967.3549	3008.6612	3106.6913	3115.9955	3137.0385	3191.5823	3492.9897
COCC1CN1	COC[C@H]1CN1	
InChI=1S/C4H9NO/c1-6-3-4-2-5-4/h4-5H,2-3H2,1H3	InChI=1S/C4H9NO/c1-6-3-4-2-5-4/h4-5H,2-3H2,1H3/t4-/m1/s1
