15
gdb 3652	3.59338	3.22394	1.73597	2.6618	63.03	-0.2217	0.0291	0.2508	721.2685	0.12621	-304.733723	-304.726411	-304.725467	-304.76592	25.376	
C	 0.0006231433	 1.5123882563	 0.1087535674	-0.50358
C	 0.0034108619	 0.0262050595	-0.0394439628	 0.28488
C	-0.0025109943	-0.7894563369	-1.1606580446	 0.131118
C	-0.0179192056	-0.3772074317	-2.6012095058	-0.511683
C	 0.0250709813	-2.1022281569	-0.6336289648	-0.073862
N	 0.0455179113	-2.1187649676	 0.6949718821	-0.234158
N	 0.035759988	-0.8141093529	 1.0296669398	-0.244483
H	 1.013720593	 1.9191841694	 0.2157517349	 0.139526
H	-0.4472287328	 1.9826892797	-0.7705376908	 0.140994
H	-0.5762456459	 1.8290150343	 0.9843535903	 0.127976
H	 0.9900274679	-0.1908062304	-2.9923498611	 0.127525
H	-0.4668239235	-1.1558488013	-3.225204736	 0.12786
H	-0.5967675805	 0.5397357728	-2.7559357867	 0.120505
H	 0.0231093641	-3.0349292496	-1.1806442258	 0.102152
H	 0.0311609118	-0.5612071547	 2.0035101639	 0.265229
39.6936	73.8409	235.0268	241.0437	279.7251	394.3714	500.6003	635.8502	667.5395	694.6943	708.5396	882.8523	946.1439	999.6798	1002.1895	1052.2966	1068.4148	1141.8789	1191.9972	1244.007	1305.1233	1375.6277	1415.781	1421.3256	1447.7735	1481.9665	1484.5819	1488.2616	1499.7691	1529.6855	1629.2884	3022.4533	3025.8778	3073.7087	3079.8419	3102.3555	3115.1228	3233.202	3667.5843
CC1=C(C)C=NN1	Cc1c(C)cn[nH]1	
InChI=1S/C5H8N2/c1-4-3-6-7-5(4)2/h3H,1-2H3,(H,6,7)	InChI=1S/C5H8N2/c1-4-3-6-7-5(4)2/h3H,1-2H3,(H,6,7)
