17
gdb 2015	5.40232	2.15272	2.08148	1.0894	64.62	-0.2482	0.0959	0.3441	715.9322	0.149106	-309.661518	-309.654982	-309.654038	-309.691913	25.083	
C	-0.0124792968	 1.3568665742	 0.0060083822	-0.262051
O	 0.0338929238	-0.0555338924	-0.0548491101	-0.284982
C	 0.6702252037	-0.5501897746	-1.1700323466	 0.451089
C	 2.1622282385	-0.360934222	-1.6085136098	-0.280584
C	 1.5100570416	-1.3248278876	-2.6399456476	-0.050099
C	 0.8382454488	-2.060083312	-1.4424723159	-0.26973
C	 0.2769930902	-0.3780014565	-2.6766461815	-0.280581
H	 0.9951511631	 1.7954220356	 0.0308901994	 0.112217
H	-0.5571318154	 1.7823744991	-0.8487279005	 0.112207
H	-0.5366361088	 1.6202781295	 0.92708622	 0.128186
H	 2.4549107903	 0.6244348933	-1.9808541677	 0.087707
H	 2.9216984245	-0.7886244962	-0.9486057389	 0.091797
H	 1.9988702855	-1.7840400362	-3.4953416381	 0.080851
H	 1.5008718799	-2.6061366253	-0.7660133164	 0.092234
H	-0.0750247608	-2.6203873086	-1.658897756	 0.092238
H	-0.6734673425	-0.8211795314	-2.9855284844	 0.091798
H	 0.4324336745	 0.606126441	-3.1267369881	 0.087704
87.0384	193.0256	220.6674	383.8767	428.0457	550.5666	553.4285	627.9538	772.3229	800.8972	885.043	941.6387	957.5416	959.0291	964.6147	985.661	1082.205	1091.84	1099.9713	1131.1811	1136.917	1160.9664	1164.6719	1182.3991	1213.6596	1227.5676	1231.4202	1253.5909	1312.62	1485.197	1490.0298	1493.7022	1497.3731	1506.9979	1557.4167	2991.9659	3042.5198	3048.9185	3050.1017	3058.3496	3114.2599	3119.273	3121.9609	3122.9752	3148.614
COC12CC(C1)C2	CO[C@@]12C[C@@H](C1)C2	
InChI=1S/C6H10O/c1-7-6-2-5(3-6)4-6/h5H,2-4H2,1H3	InChI=1S/C6H10O/c1-7-6-2-5(3-6)4-6/h5H,2-4H2,1H3/t5-,6-
