10
gdb 748	9.84085	3.80249	2.79136	5.7041	43.54	-0.2827	-0.0149	0.2678	448.3989	0.074633	-297.510804	-297.505584	-297.50464	-297.5407	16.822	
C	-0.0187948255	 1.4675046929	 0.0168386066	-0.334388
N	 0.0018055659	 0.0184087675	-0.0551715529	 0.040209
C	 0.0919242567	-0.8144658319	-1.106839047	 0.062131
N	 0.0718652256	-2.0571787691	-0.6771820644	-0.217088
N	-0.0336444973	-1.9704844173	 0.6756597574	-0.091636
N	-0.0763933344	-0.7395986844	 1.0611628978	-0.11965
H	 0.9049950182	 1.8845215687	-0.3914884021	 0.158364
H	-0.8742542461	 1.8661501666	-0.5338515193	 0.158333
H	-0.1057298811	 1.7372065982	 1.0688694353	 0.180211
H	 0.1677404681	-0.491384591	-2.1323734915	 0.163514
21.5968	224.77	353.9861	668.2193	694.045	737.0304	864.1003	983.8194	1020.8927	1070.4994	1124.4301	1153.0547	1197.7238	1264.5611	1330.1993	1433.5543	1457.3682	1487.3102	1508.9405	1524.8253	3058.6869	3128.7621	3169.9446	3281.96
CN1C=NN=N1	Cn1cnnn1	
InChI=1S/C2H4N4/c1-6-2-3-4-5-6/h2H,1H3	InChI=1S/C2H4N4/c1-6-2-3-4-5-6/h2H,1H3
