12
gdb 2827	4.85047	1.71562	1.38699	3.198	53.34	-0.2638	-0.0506	0.2132	816.4883	0.088308	-360.495461	-360.488612	-360.487668	-360.526895	23.368	
O	-0.4986817941	 0.771169561	 0.9021655247	-0.244525
C	 0.1691707083	 0.8679111	-0.0945524711	 0.174157
C	 1.3858631543	 1.731470191	-0.1794379011	-0.115411
N	 2.3410610605	 1.4012912706	-1.233614499	-0.324038
C	 1.6347383829	 2.6744848535	-1.3467289653	-0.11541
C	 0.6796884094	 2.8023153053	-2.4890151898	 0.174157
O	 0.3175183999	 3.8637890641	-2.9259805128	-0.244526
H	-0.0627458505	 0.3052170042	-1.0238623928	 0.094797
H	 1.7389713113	 2.0924843621	 0.7840572608	 0.123458
H	 3.2980419526	 1.5359653023	-0.9207842448	 0.259084
H	 2.137650989	 3.6031192718	-1.0858520789	 0.123458
H	 0.3409820363	 1.8349685141	-2.9174370399	 0.094798
74.9938	126.9581	229.0032	255.8279	355.8034	378.6144	503.6009	510.9104	780.3988	914.6379	914.6679	962.7423	1007.4716	1045.7316	1050.8262	1128.4032	1195.5058	1197.103	1230.4451	1350.0129	1376.3231	1411.4626	1463.2715	1823.4033	1833.614	2901.2746	2920.7812	3141.7939	3151.0345	3526.1048
O=CC1NC1C=O	O=C[C@H]1N[C@H]1C=O	
InChI=1S/C4H5NO2/c6-1-3-4(2-7)5-3/h1-5H	InChI=1S/C4H5NO2/c6-1-3-4(2-7)5-3/h1-5H/t3-,4+
