7
gdb 826	5.69142	2.88373	2.88354	2.0892	30.55	-0.3166	0.0022	0.3188	466.6507	0.033373	-414.351653	-414.346269	-414.345325	-414.38067	18.453	
F	 0.015865583	 0.0608118464	-0.0236920138	-0.067538
C	-0.0212067717	 1.3978904345	 0.0172637753	 0.269614
F	 1.2402700836	 1.8425054289	-0.026128578	-0.067607
F	-0.6421610932	 1.8228619273	-1.0894129936	-0.067592
C	-0.7060103705	 1.8698501808	 1.2209922048	 0.134252
C	-1.2667633034	 2.2556801006	 2.2065750045	-0.423139
H	-1.7644624577	 2.5983319915	 3.0814484209	 0.22201
181.9148	182.4488	451.7602	452.7219	537.4104	616.675	617.2516	697.7818	697.8002	815.4695	1191.0915	1191.2301	1250.9435	2267.451	3497.0156
FC(F)(F)C#C	FC(F)(F)C#C	
InChI=1S/C3HF3/c1-2-3(4,5)6/h1H	InChI=1S/C3HF3/c1-2-3(4,5)6/h1H
