14
gdb 480	6.30494	3.69329	2.91269	1.8852	53.11	-0.2293	0.0805	0.3098	506.8939	0.119607	-270.388222	-270.382545	-270.381601	-270.416941	21.353	
C	-0.0296560035	 1.5653845279	 0.0248338369	-0.493694
C	 0.0317926809	 0.0670298327	 0.018128285	 0.275613
C	-0.8731978998	-0.8352392965	 0.8396767738	-0.338694
C	 0.6144192455	-0.9463702846	 0.978887042	 0.071191
O	 1.1564280721	-1.756073277	-0.0676648595	-0.287263
C	 0.7004432818	-0.7925895434	-1.0554890537	-0.120063
H	 0.9340934231	 2.006651439	-0.2536429346	 0.12028
H	-0.7834875143	 1.938083413	-0.6794547587	 0.12255
H	-0.2959309347	 1.9439431583	 1.0168407783	 0.121779
H	-1.3848996746	-0.3310893273	 1.6546863073	 0.110233
H	-1.4271562206	-1.6505067321	 0.3808795836	 0.112165
H	 1.1788570327	-0.8603689382	 1.9009044695	 0.101184
H	 0.0619586268	-1.248043771	-1.8225245101	 0.101713
H	 1.5568455345	-0.2998405707	-1.5323758699	 0.103007
187.8036	249.1814	311.5689	365.2579	454.5064	620.0785	758.8376	815.2246	890.4837	925.6329	956.7553	990.4324	998.0268	1029.057	1040.0988	1075.5321	1101.1694	1138.1329	1167.1716	1246.8759	1294.7849	1308.8337	1404.5107	1426.7771	1483.9541	1488.0384	1499.1	1517.3537	3012.9036	3021.9604	3062.2296	3078.9247	3098.2917	3107.9458	3173.8212	3200.1701
CC12CC1OC2	C[C@]12C[C@H]1OC2	
InChI=1S/C5H8O/c1-5-2-4(5)6-3-5/h4H,2-3H2,1H3	InChI=1S/C5H8O/c1-5-2-4(5)6-3-5/h4H,2-3H2,1H3/t4-,5-/m1/s1
