17
gdb 1124	4.72316	1.68356	1.45841	1.851	61.37	-0.2644	0.0201	0.2846	906.2239	0.145537	-346.908492	-346.899733	-346.898788	-346.942268	30.038	
C	-0.0351327115	 1.523134422	-0.0598420365	-0.396224
C	 0.0047350295	 0.0004816685	 0.0181720539	 0.151524
C	-1.3731669937	-0.6443365116	-0.012207681	-0.392577
O	 0.721613147	-0.5283520301	-1.1300517896	-0.254461
C	 2.0674177849	-0.5656944885	-1.0507596219	 0.430366
C	 2.6559829476	-1.145831381	-2.3157912539	-0.475963
O	 2.7024644246	-0.188769366	-0.0970276595	-0.357815
H	 0.976056873	 1.9343292441	-0.0286977915	 0.14099
H	-0.5252832504	 1.8489203731	-0.9830060579	 0.118928
H	-0.5959362951	 1.9280053292	 0.7884568654	 0.118097
H	 0.5539832962	-0.3034009387	 0.9136879393	 0.108478
H	-1.9110136325	-0.3691204142	-0.9249128468	 0.124047
H	-1.293491443	-1.7341149425	 0.0248186152	 0.123115
H	-1.9623162728	-0.3116793706	 0.8475502539	 0.119826
H	 2.3683001149	-0.5351638658	-3.1763985005	 0.147852
H	 3.7413374913	-1.1787085905	-2.2294772129	 0.146198
H	 2.2627185301	-2.1518880874	-2.4864797957	 0.147619
48.176	70.7823	113.4605	192.9052	217.0516	258.0248	309.8286	399.5156	426.7965	472.8113	612.194	633.7136	823.4602	892.7798	933.356	950.7209	969.902	1034.2638	1063.8169	1140.7569	1162.6148	1203.6826	1271.1297	1359.8833	1382.7767	1398.9857	1401.7634	1417.6241	1469.2649	1476.1672	1481.5762	1486.4627	1495.8304	1511.3595	1816.3305	3039.2914	3043.4804	3056.4165	3073.2996	3108.5146	3119.0673	3120.5868	3121.2453	3133.7863	3167.9158
CC(C)OC(C)=O	CC(C)OC(=O)C	
InChI=1S/C5H10O2/c1-4(2)7-5(3)6/h4H,1-3H3	InChI=1S/C5H10O2/c1-4(2)7-5(3)6/h4H,1-3H3
