13
gdb 1782	4.5314	2.15252	1.81655	3.2191	51.37	-0.2487	-0.0274	0.2212	701.5161	0.09908	-381.574917	-381.567674	-381.56673	-381.605867	26.226	
O	-0.1939471326	 1.2344856542	-0.200745375	-0.426042
C	-0.1502262671	-0.1393721246	 0.0525903575	 0.044171
C	-0.6951860641	-0.6925110742	 1.3291818487	-0.368967
C	-1.5339750065	-0.7885093187	 0.0577395329	 0.306268
O	-2.6256429731	 0.0524971795	-0.1010817517	-0.474857
C	-1.6650686231	-2.1145869339	-0.5961930504	 0.106815
O	-0.8502426251	-3.0005730594	-0.4852598882	-0.274378
H	 0.1937647556	 1.7028737087	 0.5454942871	 0.303263
H	 0.6484489059	-0.6787551254	-0.4504764536	 0.125133
H	-0.2620307568	-1.6147442886	 1.7000807881	 0.146996
H	-1.0709919129	 0.0061397032	 2.0692577008	 0.124878
H	-2.2683604485	 0.9143323745	-0.3614792799	 0.294639
H	-2.5824625517	-2.2187437552	-1.2133867862	 0.092082
125.5357	213.2448	217.5115	226.4444	278.1354	380.3535	445.6337	461.09	535.8042	659.5107	727.13	770.7815	878.9008	933.4866	1011.3067	1052.9293	1066.181	1107.8281	1163.9217	1228.8647	1290.1307	1302.0202	1372.8643	1387.9147	1431.2367	1447.2014	1806.6317	2916.6226	3133.0707	3143.2481	3236.1927	3722.1834	3817.1639
OC1CC1(O)C=O	O[C@H]1C[C@]1(O)C=O	
InChI=1S/C4H6O3/c5-2-4(7)1-3(4)6/h2-3,6-7H,1H2	InChI=1S/C4H6O3/c5-2-4(7)1-3(4)6/h2-3,6-7H,1H2/t3-,4-/m0/s1
