15
gdb 4470	3.55778	1.84475	1.23367	2.6026	65.04	-0.1953	0.0367	0.232	949.2501	0.119853	-396.022259	-396.014302	-396.013357	-396.054099	29.562	
C	-0.0584602183	 1.5229462176	 0.1290584764	-0.493778
C	-0.0289513299	 0.037366873	 0.0270407133	 0.266663
C	-0.0287365243	-0.724829398	-1.0898442485	 0.168984
N	-0.0490304464	-0.4302416784	-2.4461839398	-0.599808
O	 0.0039240544	-2.0734731308	-0.6655689781	-0.210976
C	 0.0217461765	-1.9842787856	 0.6756197419	 0.442005
N	-0.0174967758	-3.1664826518	 1.3763041156	-0.588431
N	 0.0101443493	-0.7811861104	 1.1611862036	-0.393336
H	 0.8226737103	 1.8959935035	 0.6627819146	 0.12913
H	-0.0833372964	 1.9709263151	-0.86662267	 0.133501
H	-0.9379781471	 1.8582600056	 0.6896783366	 0.130892
H	 0.7834838142	-0.739925023	-2.9376071336	 0.243205
H	-0.8608937575	-0.8069814003	-2.9250087645	 0.244769
H	 0.4384276852	-3.9426025644	 0.9190287627	 0.259762
H	 0.2572663058	-3.0522899919	 2.3410300298	 0.267418
140.462	189.1653	212.6932	253.9722	255.9123	289.738	332.6356	382.3416	522.603	601.3386	638.263	653.5645	665.9515	754.9319	762.603	830.4852	980.5299	1022.101	1043.1898	1069.6232	1139.6669	1212.457	1261.2146	1338.269	1415.4094	1448.5403	1479.9855	1489.6956	1600.6827	1655.7779	1673.6074	1743.5046	3034.273	3085.5195	3131.9689	3490.8331	3554.4837	3571.6078	3679.9262
CC1=C(N)OC(N)=N1	Cc1c(N)oc(N)n1	
InChI=1S/C4H7N3O/c1-2-3(5)8-4(6)7-2/h5H2,1H3,(H2,6,7)	InChI=1S/C4H7N3O/c1-2-3(5)8-4(6)7-2/h5H2,1H3,(H2,6,7)
