17
gdb 3518	7.09898	1.61414	1.42137	1.7979	64.6	-0.2603	0.0882	0.3485	872.723	0.149025	-309.683546	-309.676732	-309.675788	-309.71472	25.143	
C	 0.1526608804	 1.5542522025	 0.0569574929	-0.183764
O	 1.2103789377	 0.6073844015	-0.0919823204	-0.239164
C	-0.1301739615	 0.1132259868	 0.0137089583	 0.07663
C	-0.4716367267	-0.6802634833	 1.2398298778	 0.035556
C	-1.970236509	-1.0013011581	 1.5177486293	-0.235504
C	-1.5407483471	-2.4166773111	 1.989506354	-0.209456
C	-0.1943521226	-2.2127742835	 1.2446193102	-0.227716
H	 0.1244514192	 2.0769902146	 1.0127377449	 0.109796
H	-0.0488607626	 2.1750311751	-0.8153273993	 0.1121
H	-0.5207807211	-0.2931648937	-0.9228463677	 0.083738
H	-0.0076495561	-0.2056933173	 2.1105036066	 0.074008
H	-2.5039103575	-0.3593126562	 2.2225526478	 0.098586
H	-2.5451489682	-1.0449674803	 0.5864705736	 0.099827
H	-1.4017065738	-2.4554403597	 3.0737148403	 0.10382
H	-2.164827566	-3.261895212	 1.6909249403	 0.097359
H	-0.2281678898	-2.6222207322	 0.2294729498	 0.100446
H	 0.7221745747	-2.5588104331	 1.7269581814	 0.103737
75.6182	124.2159	187.3542	301.1678	379.4031	469.6061	630.7528	758.7054	781.3488	855.2268	879.0995	907.7093	932.8302	945.873	963.5494	992.0396	1041.2425	1095.0301	1106.792	1153.7808	1169.6575	1201.2257	1204.4414	1240.5811	1255.3897	1258.7471	1272.8329	1285.9683	1294.3611	1331.1777	1455.2589	1478.1678	1486.4386	1510.2618	1529.5301	3046.7972	3050.2604	3055.8472	3059.5227	3076.0893	3080.258	3099.6513	3107.021	3120.4997	3163.1431
C1OC1C1CCC1	C1O[C@H]1C1CCC1	
InChI=1S/C6H10O/c1-2-5(3-1)6-4-7-6/h5-6H,1-4H2	InChI=1S/C6H10O/c1-2-5(3-1)6-4-7-6/h5-6H,1-4H2/t6-/m1/s1
