16
gdb 1303	3.46915	2.57533	2.20806	2.4567	61.5	-0.2609	0.0323	0.2932	703.5227	0.136267	-325.785262	-325.777909	-325.776964	-325.816273	27.018	
C	-0.1028406451	 1.5392312809	 0.077036748	-0.440877
C	-0.0200746134	 0.0148629026	-0.0031359304	 0.171006
C	-1.389795509	-0.6456729953	 0.1535810766	-0.440877
C	 0.8661317021	-0.5471838121	-1.147057522	-0.115743
O	 1.8166434894	-1.0729025829	-0.1682733334	-0.259677
C	 1.0623198192	-0.5918063168	 0.8808834661	 0.419832
N	 1.2450393827	-0.6561043476	 2.1193187482	-0.551797
H	 0.8814448689	 2.0015839339	-0.0439415542	 0.123525
H	-0.7650764405	 1.9321636647	-0.7020847946	 0.116495
H	-0.4991900884	 1.8448057414	 1.049598414	 0.139987
H	-2.078582783	-0.2970681046	-0.6236108861	 0.116491
H	-1.3198882882	-1.7355486394	 0.0864326244	 0.12352
H	-1.8190939376	-0.3969906639	 1.1283657807	 0.140001
H	 0.4334773789	-1.3556047343	-1.7424846989	 0.115882
H	 1.3444587106	 0.1908333999	-1.7965219451	 0.115881
H	 2.1063756131	-1.1555248564	 2.3476417768	 0.226351
114.1066	190.1881	218.	228.11	286.1099	342.7367	367.9155	507.3558	662.8526	692.7855	756.0449	863.8272	871.5272	933.9955	967.9207	968.5415	999.9327	1017.9054	1039.8821	1154.8405	1194.8827	1247.4624	1252.3414	1269.789	1371.2411	1401.0183	1424.4866	1482.0601	1486.1932	1502.4858	1503.3508	1520.0598	1822.8279	3032.3745	3035.8923	3054.8475	3102.1184	3105.4265	3111.3051	3116.9371	3118.2516	3474.3075
CC1(C)COC1=N	CC1(C)CO[C]1[NH]	
InChI=1S/C5H9NO/c1-5(2)3-7-4(5)6/h6H,3H2,1-2H3	InChI=1S/C5H9NO/c1-5(2)3-7-4(5)6/h6H,3H2,1-2H3
