12
gdb 1945	6.17362	1.87492	1.69231	3.8041	51.87	-0.2595	-0.0431	0.2164	717.5531	0.089433	-360.538828	-360.532323	-360.531379	-360.569716	22.661	
O	-0.0646586528	-0.0143789506	 0.2372593581	-0.237043
C	-0.0236601108	 1.1612410276	-0.0161560518	 0.150887
C	 1.2460371829	 1.9799154144	-0.0235206298	-0.05065
C	 1.4455609983	 2.9016461299	 1.2280788151	-0.403365
C	 2.6399446817	 1.9658046907	 1.5523334269	 0.439105
O	 3.4209564638	 1.8537170686	 2.4528965804	-0.336763
N	 2.4556167788	 1.2683956521	 0.3736444811	-0.310505
H	-0.9402444691	 1.7388697314	-0.2736206578	 0.086223
H	 1.3222958827	 2.5092691939	-0.9826651542	 0.10905
H	 1.7065002391	 3.9383965052	 1.0138437458	 0.1441
H	 0.6467489844	 2.8644474981	 1.9713512953	 0.145568
H	 2.7282785511	 0.323374129	 0.1428052208	 0.263395
76.2036	122.075	244.7528	333.3253	399.2458	485.1813	561.9468	699.3134	710.3657	809.0974	908.3973	944.4662	984.8924	1042.5754	1086.9211	1127.2813	1169.7794	1190.9165	1258.8467	1348.8571	1379.3484	1414.7373	1458.5543	1832.8548	1909.6303	2881.3064	3023.8446	3090.092	3152.487	3609.4593
O=CC1CC(=O)N1	O=C[C@H]1CC(=O)N1	
InChI=1S/C4H5NO2/c6-2-3-1-4(7)5-3/h2-3H,1H2,(H,5,7)	InChI=1S/C4H5NO2/c6-2-3-1-4(7)5-3/h2-3H,1H2,(H,5,7)/t3-/m1/s1
