12
gdb 4735	6.92592	1.28503	1.08392	3.4338	66.28	-0.217	-0.0253	0.1918	983.5126	0.085535	-377.568744	-377.561837	-377.560893	-377.599752	25.526	
O	 0.1014611337	 1.3757331999	-0.1285912176	-0.442989
C	 0.068886245	 0.0198479931	-0.0309039961	 0.351246
C	-0.0094610262	-0.8210811785	-1.1274612394	-0.159142
N	-0.0213179359	-2.1055551405	-0.658799853	-0.312953
C	 0.0473975409	-2.1043392515	 0.7130658061	 0.252622
C	 0.1052915586	-0.7799877726	 1.1325420675	-0.391287
C	 0.0517662202	-3.2995679121	 1.4601003466	 0.207732
N	 0.0546620582	-4.2900279115	 2.0639029377	-0.349539
H	 0.1564272918	 1.7507299037	 0.7552324119	 0.303546
H	-0.0560015329	-0.5943138623	-2.1788667885	 0.140208
H	-0.0727203765	-2.9342807858	-1.2254772236	 0.281886
H	 0.166000813	-0.4500783019	 2.1580205685	 0.11867
136.469	155.097	237.2984	325.1941	392.0881	453.1855	521.8812	530.3099	582.1121	633.5838	672.1968	718.1791	741.076	801.0399	988.1345	1007.2533	1128.4783	1173.3715	1192.3056	1306.4654	1355.296	1453.5624	1466.5305	1529.1335	1644.865	2332.2112	3255.5849	3283.306	3685.8186	3843.573
OC1=CNC(=C1)C#N	Oc1c[nH]c(c1)C#N	
InChI=1S/C5H4N2O/c6-2-4-1-5(8)3-7-4/h1,3,7-8H	InChI=1S/C5H4N2O/c6-2-4-1-5(8)3-7-4/h1,3,7-8H
