13
gdb 717	6.18567	5.559	4.35023	1.6597	52.16	-0.2238	0.0883	0.3121	397.6097	0.110471	-249.269471	-249.265191	-249.264247	-249.29668	17.297	
C	-0.0013740663	 1.4544708149	 0.1143135057	-0.168722
C	 1.5104317125	 1.394831493	-0.0110093182	-0.079425
C	 1.9278654482	 0.0864952896	 0.6952984203	-0.079418
C	 0.6332976517	-0.5347044337	 1.1882617593	-0.168722
N	-0.0484274936	-0.0505335332	-0.0787674531	-0.168618
C	 1.367634811	 0.0682927112	-0.6955809894	-0.020732
H	-0.4622972626	 1.8096935976	 1.0435004788	 0.096189
H	-0.4761779493	 1.9411086895	-0.7416875196	 0.108365
H	 2.2299631047	 2.1794359525	-0.2096718078	 0.089291
H	 2.9507265548	-0.0796215167	 1.00987317	 0.089292
H	 0.6623991563	-1.6274689092	 1.1849855338	 0.108363
H	 0.1726794598	-0.180354895	 2.1179345254	 0.096193
H	 1.6850260927	-0.3420179903	-1.6432037252	 0.097943
414.4356	469.8289	727.0516	776.7047	779.8181	799.635	836.9779	856.5833	914.8764	957.9276	989.5833	997.4904	1024.9223	1040.1585	1070.9588	1085.84	1117.426	1159.547	1170.9628	1195.6015	1258.5309	1293.9616	1301.1869	1366.5236	1499.9569	1519.6659	3027.4093	3037.4519	3096.1531	3099.3733	3186.8234	3193.2466	3224.6899
C1C2C3CN1C23	C1[C@H]2[C@H]3CN1[C@@H]23	
InChI=1S/C5H7N/c1-3-4-2-6(1)5(3)4/h3-5H,1-2H2	InChI=1S/C5H7N/c1-3-4-2-6(1)5(3)4/h3-5H,1-2H2/t3-,4+,5-
