14
gdb 902	6.96625	2.03651	1.59188	1.7744	60.31	-0.1841	0.0475	0.2317	750.6495	0.114013	-324.602433	-324.595443	-324.594499	-324.633577	25.235	
C	-0.0486872741	 1.4501803128	-0.0048242363	-0.332839
N	-0.0330004666	 0.0050177749	 0.0054904089	 0.032405
C	-0.0147373819	-0.8004437057	-1.0967224312	-0.073329
C	 0.0703504925	-2.1139123126	-0.6831393691	-0.313563
C	 0.1082320775	-2.089710286	 0.7372557815	 0.308
O	 0.1833117892	-3.1498187174	 1.5958739232	-0.44853
C	 0.0465952522	-0.7752797288	 1.142509853	-0.190104
H	 0.9209392089	 1.8676035755	 0.2913275515	 0.136277
H	-0.2836672299	 1.7984164813	-1.0125928594	 0.137588
H	-0.813919208	 1.8312680397	 0.6788700129	 0.138032
H	-0.0626591066	-0.3771842763	-2.0876323594	 0.113692
H	 0.0891162501	-2.9854981624	-1.3205404717	 0.086646
H	 0.2186453941	-3.9567070595	 1.0748863612	 0.294261
H	 0.0504324426	-0.3414069558	 2.1281109949	 0.111462
55.2177	166.9509	219.211	296.5371	329.0641	449.2284	603.8041	607.4334	617.8636	664.9685	730.8125	741.3053	759.279	998.2187	1013.8516	1076.3492	1103.3056	1150.7157	1168.8618	1218.5206	1303.5382	1380.9462	1423.7561	1445.0175	1463.8999	1482.3797	1522.7774	1550.9621	1642.3199	3026.3198	3084.4589	3131.6256	3234.2631	3261.1413	3274.3893	3846.7321
CN1C=CC(O)=C1	Cn1ccc(O)c1	
InChI=1S/C5H7NO/c1-6-3-2-5(7)4-6/h2-4,7H,1H3	InChI=1S/C5H7NO/c1-6-3-2-5(7)4-6/h2-4,7H,1H3
