18
gdb 1101	3.26136	2.33804	1.95343	3.3918	63.51	-0.2389	0.0359	0.2747	777.3008	0.157531	-327.02501	-327.015844	-327.014899	-327.058801	32.795	
C	-0.025513856	 1.5329542623	 0.0167863305	-0.391172
C	-0.0023554752	-0.0023691672	 0.0016861696	 0.142079
C	 0.7587739619	-0.5186739693	 1.2418653535	-0.405402
C	-1.4483712703	-0.5418439107	 0.0086894301	-0.402929
C	 0.7254982224	-0.4642986663	-1.2820139124	 0.398501
N	 0.7998099085	-1.8171052649	-1.4684828032	-0.520649
O	 1.1985925166	 0.3111797511	-2.0907908299	-0.36895
H	 0.9874944826	 1.9410666442	-0.0002056372	 0.124899
H	-0.5484264815	 1.9260411667	-0.8580873621	 0.124271
H	-0.5333047594	 1.8906076359	 0.9186216123	 0.097721
H	 0.2814801929	-0.1473870846	 2.1549323017	 0.118575
H	 0.7705422209	-1.6121030083	 1.3010102249	 0.098746
H	 1.7970572416	-0.1723658288	 1.2404279536	 0.127141
H	-1.9974946759	-0.209495877	-0.8777541746	 0.126939
H	-1.486530232	-1.6355644454	 0.033998701	 0.100079
H	-1.9805818245	-0.1737480231	 0.8923026628	 0.117103
H	 0.4953511331	-2.4806358267	-0.7797471097	 0.254658
H	 1.3212011142	-2.1510165179	-2.2621262508	 0.25839
22.9357	113.7614	191.6901	229.6423	248.8205	265.7685	283.1338	344.8237	365.6462	373.7224	481.4887	555.8837	564.2473	698.2074	774.503	852.8753	937.8437	945.9145	965.0442	1036.7134	1047.1785	1089.0435	1229.6781	1229.8821	1247.6247	1346.3174	1401.2494	1403.2491	1436.164	1474.8618	1479.7446	1482.5584	1499.0943	1504.1451	1514.5112	1615.438	1786.8585	3027.9137	3031.6627	3043.9394	3093.0698	3098.6063	3104.3331	3105.8747	3116.5641	3130.91	3608.9143	3746.1415
CC(C)(C)C(N)=O	CC(C)(C)C(=O)N	
InChI=1S/C5H11NO/c1-5(2,3)4(6)7/h1-3H3,(H2,6,7)	InChI=1S/C5H11NO/c1-5(2,3)4(6)7/h1-3H3,(H2,6,7)
