14
gdb 649	5.60754	4.61367	4.23469	1.6503	52.41	-0.2355	0.0984	0.3339	432.4575	0.122543	-270.407057	-270.402557	-270.401612	-270.434586	18.239	
C	-0.0474546269	 1.5746651348	-0.0462578093	-0.225935
C	 1.4996302981	 1.3560838864	 0.0017706532	-0.061115
C	 1.1965158298	 0.1701883236	 0.9740527482	-0.225935
C	-0.0131943879	 0.0275899405	 0.0175222912	 0.121232
O	 0.5908751498	-0.3452152265	-1.2321390254	-0.280314
C	 1.699649387	 0.5825272493	-1.306909744	-0.070468
H	-0.4361222539	 2.0402147025	 0.8608301336	 0.1
H	-0.4825054525	 2.0284529608	-0.9401471069	 0.098248
H	 2.2063707056	 2.1515802433	 0.2351178148	 0.071203
H	 1.9018217141	-0.6635124205	 1.0154893369	 0.098248
H	 0.9233965637	 0.5052790727	 1.9759148472	 0.1
H	-0.8805044585	-0.6026661737	 0.2073914649	 0.078179
H	 1.6076638994	 1.2068480108	-2.2036556306	 0.098328
H	 2.6474654222	 0.0328830658	-1.3508062337	 0.098328
352.8593	470.0982	511.7716	653.3889	817.2561	840.7801	861.9402	864.7446	919.839	942.8766	944.6733	985.1371	1018.9098	1040.504	1073.3617	1098.7794	1123.1087	1137.4073	1186.8311	1218.491	1243.4116	1265.5589	1284.2499	1302.156	1370.3999	1474.8002	1504.3019	1531.8752	3020.8687	3059.9441	3065.2519	3070.0637	3125.6089	3132.0332	3136.5041	3140.4654
C1C2CC1OC2	C1[C@H]2C[C@@H]1OC2	
InChI=1S/C5H8O/c1-4-2-5(1)6-3-4/h4-5H,1-3H2	InChI=1S/C5H8O/c1-4-2-5(1)6-3-4/h4-5H,1-3H2/t4-,5+
