14
gdb 1873	5.19758	2.38047	1.91572	4.3275	54.71	-0.2522	0.0577	0.3099	686.5178	0.114565	-361.740062	-361.733629	-361.732685	-361.770605	23.283	
C	 0.1193105462	 1.4787167397	 0.1958846639	-0.399686
C	-0.0388818408	-0.0039600783	-0.1122878462	 0.10029
C	 0.8208179838	-0.5051234467	-1.284918951	-0.116329
O	 1.9743191842	-1.0451825722	-0.6365832778	-0.250021
C	 1.6733844703	-1.2933868347	 0.6729951968	 0.490645
N	 2.3934833816	-1.888903373	 1.5134664796	-0.576522
O	 0.4525083612	-0.7975262153	 0.9805056467	-0.232909
H	 1.1769323846	 1.7445804775	 0.2898542962	 0.137125
H	-0.3210474565	 2.0809746099	-0.6055099619	 0.122331
H	-0.3846828178	 1.7267124414	 1.1331388127	 0.141776
H	-1.0933717604	-0.2602259859	-0.2439393477	 0.104317
H	 0.3236433965	-1.2930243637	-1.8619696663	 0.121603
H	 1.1384971914	 0.2931553452	-1.9594203898	 0.126983
H	 3.2486790357	-2.2147303039	 1.0695653948	 0.230397
91.3184	144.98	242.0863	336.1993	421.4579	479.444	711.2289	717.587	751.1175	803.8347	839.3479	902.3815	950.68	966.1267	1032.5168	1060.604	1110.2178	1140.9927	1167.338	1235.1614	1260.5178	1352.9544	1381.8839	1410.7683	1421.9567	1487.2109	1494.2817	1524.111	1800.6221	3039.1327	3041.3671	3077.1516	3109.7193	3114.6754	3130.1423	3537.3213
CC1COC(=N)O1	C[C@H]1CO[C]([NH])O1	
InChI=1S/C4H7NO2/c1-3-2-6-4(5)7-3/h3,5H,2H2,1H3	InChI=1S/C4H7NO2/c1-3-2-6-4(5)7-3/h3,5H,2H2,1H3/t3-/m0/s1
