15
gdb 3588	4.8259	3.20972	2.52976	2.5578	59.65	-0.2224	0.0672	0.2895	582.766	0.128436	-304.643392	-304.638143	-304.637199	-304.672049	21.623	
C	-0.0192522479	 1.534917829	-0.0433024101	-0.215381
C	 1.44206634	 1.9797321288	 0.0604649526	-0.039259
N	 2.0821144734	 1.7156227559	 1.3623256702	-0.307
C	 2.3058703738	 0.7788430926	 0.2417647474	-0.040598
C	 1.4135507845	-0.4457818402	 0.2448141937	-0.040598
N	 0.4559279538	-0.5161661506	 1.3678833972	-0.307
C	 0.0053246124	 0.0079388952	 0.0653753866	-0.039259
H	-0.6432586356	 1.9915259963	 0.7306914745	 0.119428
H	-0.4202250865	 1.8246507809	-1.0209383955	 0.095903
H	 1.7688702854	 2.8422700425	-0.5131158352	 0.081625
H	 2.8994414342	 2.3155500698	 1.4534795488	 0.225611
H	 3.2940981125	 0.7021264334	-0.1988917432	 0.079647
H	 1.7883266287	-1.3644035568	-0.193745848	 0.079647
H	 0.1355031222	-1.4776962205	 1.4629255476	 0.225611
H	-0.7169515908	-0.5692871364	-0.5046198467	 0.081625
257.166	302.7269	411.0945	557.7912	689.6498	693.452	748.994	829.2923	854.7531	858.9496	862.6638	899.0153	902.3969	950.9226	984.4592	1009.4496	1059.3253	1094.0041	1130.7054	1132.1736	1170.4675	1187.0909	1205.4012	1233.0154	1246.818	1315.1033	1336.9319	1394.8218	1421.5666	1425.6081	1465.5452	3046.5185	3095.026	3145.103	3147.8703	3161.8296	3175.846	3485.881	3487.2633
C1C2NC2C2NC12	C1[C@H]2N[C@H]2[C@H]2N[C@@H]12	
InChI=1S/C5H8N2/c1-2-4(6-2)5-3(1)7-5/h2-7H,1H2	InChI=1S/C5H8N2/c1-2-4(6-2)5-3(1)7-5/h2-7H,1H2/t2-,3+,4-,5+
