9
gdb 743	9.72565	3.72581	2.7397	2.7404	40.37	-0.3198	-0.0698	0.25	446.7216	0.061106	-317.361117	-317.356099	-317.355155	-317.389628	16.782	
C	-0.019047183	 1.4903980033	 0.0323535433	-0.477485
C	-0.00120479	 0.0063966805	-0.0332373639	 0.413503
N	-0.1080112743	-0.7035655286	-1.1200896688	-0.138023
O	-0.0409385259	-1.9895674265	-0.7013422271	-0.138063
N	 0.11178351	-2.0034168821	 0.6817838612	 0.052419
N	 0.1345071847	-0.8123984817	 1.0789044544	-0.198844
H	 0.9129149262	 1.8631580423	 0.4668462881	 0.162127
H	-0.1403820323	 1.9072708998	-0.9678708623	 0.162244
H	-0.8408935753	 1.833117673	 0.6674188651	 0.162123
110.0493	284.1337	339.1337	672.0169	687.5419	699.131	727.5838	948.9909	1008.0159	1064.1933	1073.5678	1107.2041	1303.1139	1414.1828	1475.6166	1476.3898	1489.6677	1607.552	3057.2244	3118.8849	3158.0558
CC1=NON=N1	Cc1nonn1	
InChI=1S/C2H3N3O/c1-2-3-5-6-4-2/h1H3	InChI=1S/C2H3N3O/c1-2-3-5-6-4-2/h1H3
