17
gdb 3971	3.55585	1.24737	1.05549	2.0226	68.73	-0.236	-0.0263	0.2096	1137.3816	0.138424	-400.98659	-400.976999	-400.976055	-401.021999	33.078	
C	-0.9660397545	 0.7590914521	 0.0295323616	-0.47361
C	 0.3619369125	 0.0318134146	 0.0136922096	 0.377871
O	 1.1493291425	 0.0808298125	 0.9296293152	-0.297396
C	 0.642272197	-0.8232546799	-1.231611248	-0.356922
C	 0.1595090533	-2.2369754838	-0.9877177989	 0.351108
C	 0.9481126627	-3.1148528397	-0.0575379181	-0.483554
N	-0.9162047587	-2.5657103436	-1.597087394	-0.166007
O	-1.3031977885	-3.8848149203	-1.3174283292	-0.394058
H	-0.9524264842	 1.5593115275	-0.7203889074	 0.143246
H	-1.773415272	 0.0754297899	-0.2524263891	 0.153914
H	-1.1512496007	 1.1885107331	 1.0146303776	 0.141417
H	 0.1282062954	-0.4174312311	-2.1053909511	 0.122694
H	 1.7235218636	-0.8244094448	-1.4003459953	 0.12791
H	 1.4612199594	-2.5058871262	 0.690189645	 0.154082
H	 0.3026128339	-3.8463123705	 0.4302410524	 0.151104
H	 1.7105749913	-3.6675679948	-0.6203790475	 0.141322
H	-2.1161063332	-3.967822645	-1.8268517126	 0.306878
39.95	59.2106	98.9177	137.9376	160.9216	291.9056	307.1575	337.7873	395.6852	405.3881	502.4058	521.8382	565.8942	666.0483	793.5706	819.7252	899.675	974.9999	986.4301	1025.6828	1069.1429	1073.5359	1157.0638	1221.7737	1274.3303	1289.7535	1381.1681	1394.5067	1403.5278	1459.803	1468.5365	1473.8612	1483.8363	1487.8323	1724.5983	1811.4397	3036.017	3038.035	3056.9624	3099.5032	3108.4173	3125.1124	3154.2943	3155.31	3821.7837
CC(=O)CC(C)=NO	CC(=O)CC(=NO)C	
InChI=1S/C5H9NO2/c1-4(6-8)3-5(2)7/h8H,3H2,1-2H3	InChI=1S/C5H9NO2/c1-4(6-8)3-5(2)7/h8H,3H2,1-2H3
