15
gdb 159	6.46711	6.46539	3.72933	0.001	52.	-0.3078	0.0844	0.3922	414.0869	0.140316	-196.432825	-196.427608	-196.426663	-196.462198	18.624	
C	-0.020041479	 1.5448408219	 0.0135384348	-0.188019
C	 1.4623812684	 1.9874082336	-0.0062924985	-0.184786
C	 2.2219481313	 0.7931144527	 0.5926593558	-0.185551
C	 1.4952739389	-0.4168584143	-0.015777431	-0.184804
C	 0.0009792426	-0.0141956023	-0.0003020409	-0.188155
H	-0.5115711747	 1.9079637444	 0.9218080702	 0.096422
H	-0.5793906741	 1.9598986791	-0.8295293176	 0.093923
H	 1.7942144517	 2.146865564	-1.0396304332	 0.094313
H	 1.6323032747	 2.9239824519	 0.5327279978	 0.089655
H	 3.2939786064	 0.8084334434	 0.374299383	 0.089472
H	 2.1108811551	 0.7875827274	 1.6848969469	 0.092883
H	 1.8355057348	-0.5622821554	-1.0484154844	 0.094399
H	 1.6876826306	-1.3516019846	 0.5187912689	 0.089712
H	-0.4893660064	-0.4073405887	 0.8959753627	 0.096434
H	-0.5388599803	-0.428200053	-0.8564725544	 0.094101
19.8405	261.4735	547.4161	617.3997	767.2522	821.4729	868.9235	886.5333	903.7354	911.1811	969.6578	1000.4862	1038.7119	1054.5947	1176.8543	1209.8075	1220.3918	1240.9854	1283.5815	1308.7403	1323.7743	1342.5785	1351.9725	1354.38	1486.5025	1491.287	1496.0141	1497.9037	1522.1264	3022.4157	3029.1918	3033.2803	3042.0493	3054.5786	3073.1335	3082.7331	3087.0433	3088.0757	3103.7368
C1CCCC1	C1CCCC1	
InChI=1S/C5H10/c1-2-4-5-3-1/h1-5H2	InChI=1S/C5H10/c1-2-4-5-3-1/h1-5H2
