11
gdb 3810	8.14385	2.19516	1.74822	0.391	47.64	-0.2679	-0.0206	0.2474	664.3404	0.079538	-376.562796	-376.556964	-376.55602	-376.59265	20.078	
C	-0.02237144	 1.3826264877	 0.022175459	-0.244288
O	 0.0137717158	-0.0489470447	-0.0215440904	-0.238011
C	 0.6161275296	-0.5745781054	-1.0748629305	 0.470995
N	 1.1630275429	 0.1205071001	-2.0468629229	-0.234044
O	 1.6542382145	-0.8885372405	-2.8984777727	-0.162532
C	 1.3360227393	-2.0463691331	-2.323130671	 0.120126
N	 0.6986459563	-1.9417027927	-1.2026069901	-0.320945
H	 0.9919026789	 1.7923885148	 0.0348708027	 0.147838
H	-0.5561596067	 1.7802100963	-0.8460401351	 0.147868
H	-0.5478652709	 1.6366194044	 0.9421973694	 0.14331
H	 1.6339877704	-2.949461207	-2.8360207083	 0.169682
127.5004	172.0123	244.2251	351.5462	515.1707	614.8301	709.4002	778.1624	910.9273	932.6629	972.8121	1010.4833	1079.6065	1157.3235	1181.1806	1223.3323	1311.6551	1394.2893	1460.8511	1482.0646	1498.1495	1574.0326	1625.1909	3043.4359	3115.8646	3162.3786	3263.9457
COC1=NOC=N1	COc1nocn1	
InChI=1S/C3H4N2O2/c1-6-3-4-2-7-5-3/h2H,1H3	InChI=1S/C3H4N2O2/c1-6-3-4-2-7-5-3/h2H,1H3
