13
gdb 4414	3.65711	2.07784	1.32502	2.4483	66.98	-0.2028	-0.0353	0.1675	850.418	0.096678	-398.640469	-398.633963	-398.633018	-398.67103	25.177	
O	 0.0777388893	 1.3186045999	 0.0074313473	-0.39792
C	-0.0433243385	-0.0130193755	 0.0010303006	 0.493112
C	-1.225510415	-0.6671385596	 0.0041057728	-0.317692
C	-1.1697808535	-2.0963117226	-0.003797548	-0.046662
C	 0.009244143	-2.7627341288	-0.0138719963	-0.18065
C	 1.264243015	-2.0534369725	-0.0170429288	 0.383886
N	 2.4187162078	-2.5775539381	-0.0262473329	-0.533207
O	 1.146254967	-0.6352954675	-0.0088635474	-0.285184
H	 1.0197238102	 1.5333837846	 0.0033659418	 0.312106
H	-2.1508545148	-0.1115735457	 0.0121844161	 0.117252
H	-2.1020786984	-2.6513597765	-0.0015859685	 0.1157
H	 0.0747086187	-3.841856971	-0.0199770015	 0.121003
H	 3.1501864993	-1.8681240165	-0.0265326552	 0.218255
139.9637	196.7581	339.9362	380.2387	417.9497	499.4362	523.2142	541.5305	665.8715	715.2154	751.3056	778.4252	813.2534	840.6465	883.6101	991.4056	997.1469	1025.9733	1093.4763	1163.0544	1195.5491	1254.5324	1325.2385	1415.7614	1455.3113	1607.3063	1695.3206	1758.5544	3188.487	3235.5663	3248.6385	3504.7326	3793.5454
OC1=CC=CC(=N)O1	OC1=CCC=C([NH])O1	
InChI=1S/C5H5NO2/c6-4-2-1-3-5(7)8-4/h1-3,6-7H	InChI=1S/C5H6NO2/c6-4-2-1-3-5(7)8-4/h2-3,6-7H,1H2
