14
gdb 3378	5.12334	2.34788	2.1437	4.246	60.97	-0.287	0.0317	0.3186	653.3466	0.115172	-287.426878	-287.42091	-287.419966	-287.456595	22.519	
N	 0.0683337831	-1.1460102007	 0.0300720923	-0.351244
C	 0.0528576547	 0.0111023319	 0.0363172805	 0.296127
C	 0.053186842	 1.4498855143	 0.0571853378	-0.17246
C	 0.4851648202	 2.2482809066	 1.2732449098	-0.056925
C	 1.5990702489	 1.5197147361	 2.0341456448	-0.236571
C	 2.4698072785	 1.5384321341	 0.7318667253	-0.236567
C	 1.3313251483	 2.2664406454	 0.0076876808	-0.056931
H	-0.7737319812	 1.8930627193	-0.4893284132	 0.132887
H	-0.1765147695	 3.0065493876	 1.6739764704	 0.101628
H	 2.0305663489	 2.1332767133	 2.826785337	 0.112832
H	 1.3391056057	 0.5402268694	 2.4435353858	 0.126383
H	 3.3589561767	 2.1618443513	 0.8400216275	 0.112834
H	 2.7617384374	 0.5708054305	 0.3158721516	 0.12638
H	 1.4386287664	 3.0412119909	-0.7417069005	 0.101628
144.6272	160.7059	310.5844	383.4909	559.8726	590.0188	748.6326	758.078	789.1762	789.4375	899.2304	948.0504	959.0528	972.6923	994.6403	1025.6614	1072.7416	1103.9523	1150.4584	1165.407	1224.9921	1243.7743	1259.5315	1303.8148	1335.5112	1405.1431	1479.4261	1501.0835	2348.4596	3067.3168	3072.7328	3116.1135	3132.6087	3162.5471	3181.3221	3193.6789
N#CC1C2CCC12	N#C[C@H]1[C@H]2CC[C@@H]12	
InChI=1S/C6H7N/c7-3-6-4-1-2-5(4)6/h4-6H,1-2H2	InChI=1S/C6H7N/c7-3-6-4-1-2-5(4)6/h4-6H,1-2H2/t4-,5+,6-
