9
gdb 165	9.66859	9.44683	4.77821	2.2277	39.17	-0.2438	0.0239	0.2677	284.6224	0.071284	-226.144377	-226.140644	-226.1397	-226.170637	13.255	
N	 0.0200090461	 1.3521755338	 0.0096855469	-0.168047
C	 1.2857043783	 1.8370560482	-0.0002574543	-0.027325
C	 2.1183721575	 0.7382172413	-0.0145659838	-0.197753
C	 1.2412822933	-0.368316135	-0.0119476614	-0.002438
N	-0.0349193394	 0.0073555309	 0.0028268667	-0.224922
H	-0.8400502436	 1.8732196445	 0.0210632811	 0.275071
H	 1.4876810105	 2.8964005225	 0.0035681484	 0.131053
H	 3.1960219619	 0.7358355711	-0.0252885996	 0.104001
H	 1.4875068754	-1.4199632572	-0.020187894	 0.11036
524.869	639.3605	696.6158	764.3889	838.3796	898.0761	921.9149	941.0935	1052.9606	1061.9037	1149.3468	1185.9577	1286.0231	1387.4523	1422.5181	1484.1136	1570.9101	3246.0055	3260.4039	3279.9456	3677.7139
N1C=CC=N1	[nH]1cccn1	
InChI=1S/C3H4N2/c1-2-4-5-3-1/h1-3H,(H,4,5)	InChI=1S/C3H4N2/c1-2-4-5-3-1/h1-3H,(H,4,5)
