15
gdb 4172	3.72127	1.61761	1.23969	1.8637	66.41	-0.2466	-0.0142	0.2324	957.3509	0.117412	-399.718548	-399.711023	-399.710079	-399.750613	27.799	
O	-0.1287617639	 1.3055558342	 0.2220336885	-0.38611
N	-0.0093262196	-0.088324053	 0.3122000673	-0.240384
C	-1.0970873387	-0.6613708663	 0.0088779616	 0.347354
C	-2.5024417824	-0.2457996019	-0.3951532437	-0.328954
C	-2.926093051	-1.7514379026	-0.3028681986	-0.326557
C	-1.4549030502	-2.1166133144	-0.0278126529	 0.384682
C	-0.6554579247	-3.2628475185	-0.4798809567	-0.254701
O	-1.0182337334	-3.0968109097	 0.8936982298	-0.260467
H	 0.7446256875	 1.6041615688	 0.4984740023	 0.310181
H	-2.9945845557	 0.4347316484	 0.3038075293	 0.134847
H	-2.5600921772	 0.1889826143	-1.3967397613	 0.13097
H	-3.5721662294	-1.9702748341	 0.549888442	 0.127505
H	-3.3634759908	-2.1827647425	-1.2051643198	 0.113944
H	-1.1475296739	-4.084369142	-0.9997713598	 0.118118
H	 0.4000692734	-3.1197140307	-0.704876398	 0.129572
76.2963	151.9071	169.4985	299.3378	308.7682	369.2534	454.5324	512.6781	524.4031	609.3027	755.1214	767.5118	843.9814	878.877	914.1458	951.3097	994.6312	1059.733	1092.9891	1101.4683	1133.335	1161.3509	1175.4566	1209.8382	1244.5118	1250.9079	1391.4046	1433.9322	1460.1705	1483.5674	1524.2849	1776.4347	3066.4581	3077.0066	3080.6228	3110.8949	3133.9689	3174.727	3813.4723
ON=C1CCC11CO1	ON=C1CC[C@]21CO2	
InChI=1S/C5H7NO2/c7-6-4-1-2-5(4)3-8-5/h7H,1-3H2	InChI=1S/C5H7NO2/c7-6-4-1-2-5(4)3-8-5/h7H,1-3H2/t5-/m1/s1
