19
gdb 2551	2.32831	2.18435	1.23211	1.9788	63.73	-0.2536	0.0725	0.3261	998.5187	0.169955	-348.047695	-348.038472	-348.037528	-348.081467	32.362	
C	-0.2688764121	 1.1735076607	 0.7961362151	-0.390388
C	 0.0138243535	-0.2446685842	 0.2896003028	-0.182237
C	 0.6485068288	-0.3196372401	-1.1094038343	 0.024676
C	 2.1146462196	 0.1137271222	-1.1100074802	-0.089674
O	 2.557001114	 0.1982271076	-2.4598609086	-0.424737
C	 0.5144971825	-1.7325620612	-1.7006533461	-0.077111
O	-0.837256158	-2.1457907578	-1.8561728092	-0.421427
H	 0.6441716434	 1.7679900389	 0.9041576185	 0.113541
H	-0.9324548011	 1.7112701558	 0.1096236676	 0.114137
H	-0.7574593598	 1.1475270963	 1.7753023416	 0.113099
H	 0.6601464947	-0.7723641328	 1.0054077292	 0.088062
H	-0.9230405985	-0.8096273279	 0.2516465052	 0.115752
H	 0.1130937944	 0.3717401011	-1.7787530606	 0.067788
H	 2.222569409	 1.0840033506	-0.6035979064	 0.088165
H	 2.7121239351	-0.6196648088	-0.5419696694	 0.084584
H	 3.4908750104	 0.4262837805	-2.4571351739	 0.287029
H	 1.0619910696	-1.7860956678	-2.6495896005	 0.10743
H	 0.9660738526	-2.4609302442	-1.0154462051	 0.100802
H	-1.2285425582	-1.6019355688	-2.5472127158	 0.280508
79.8628	102.4098	122.5787	196.467	224.1791	240.8494	265.725	288.7885	320.3684	431.69	479.207	522.3102	767.7588	829.3765	897.3566	963.0912	981.0884	1039.6674	1062.1219	1074.1397	1108.6769	1130.3333	1145.0718	1212.7113	1246.8518	1265.1213	1305.8485	1335.2554	1343.1397	1389.3933	1400.3143	1413.1731	1415.5064	1456.0638	1492.6357	1501.2982	1508.6175	1510.1139	1521.2871	2958.3688	2986.6321	3006.3507	3012.8991	3023.0443	3032.4357	3067.4841	3073.1536	3098.452	3102.7292	3815.6206	3834.0087
CCC(CO)CO	CCC(CO)CO	
InChI=1S/C5H12O2/c1-2-5(3-6)4-7/h5-7H,2-4H2,1H3	InChI=1S/C5H12O2/c1-2-5(3-6)4-7/h5-7H,2-4H2,1H3
