13
gdb 3502	6.57234	2.17258	2.01119	1.223	54.31	-0.2434	-0.0399	0.2035	645.9239	0.101115	-344.380267	-344.374399	-344.373455	-344.410195	21.531	
O	-0.673339117	 0.7454985656	 0.5267547223	-0.247254
C	 0.1368145519	 0.9856896285	-0.335026187	 0.117999
C	 1.2758967326	 1.957810077	-0.2170878724	-0.0675
C	 1.0785666965	 3.4948945886	-0.4983424544	 0.037157
C	 0.3006454681	 3.6455051308	 0.8272177178	-0.227478
C	 1.5597724821	 2.7781755811	 1.0672235696	 0.050079
O	 2.3342957209	 3.736242018	 0.2324884858	-0.306831
H	 0.0840922687	 0.471925449	-1.3224528632	 0.08379
H	 2.1750498888	 1.5790375463	-0.7110606972	 0.102078
H	 0.9457095294	 3.9915303904	-1.4595751883	 0.10506
H	 0.3507952058	 4.6440115284	 1.2614116514	 0.114027
H	-0.6737372007	 3.1696702584	 0.9281704267	 0.131459
H	 2.0095836728	 2.442081218	 2.0004199088	 0.107416
88.6839	201.1411	271.1055	431.2033	574.9645	682.921	726.7962	778.3407	845.3398	881.0023	905.8381	929.3716	997.2684	1008.3383	1050.3494	1080.7	1105.3256	1144.6873	1170.4338	1192.6942	1209.1111	1258.1151	1272.5775	1364.687	1427.7825	1490.6396	1815.6982	2868.5188	3084.5584	3093.9748	3121.2869	3134.4954	3176.4106
O=CC1C2CC1O2	O=C[C@H]1[C@H]2C[C@@H]1O2	
InChI=1S/C5H6O2/c6-2-3-4-1-5(3)7-4/h2-5H,1H2	InChI=1S/C5H6O2/c6-2-3-4-1-5(3)7-4/h2-5H,1H2/t3-,4+,5-
