12
gdb 942	5.97861	2.80387	1.91107	2.024	59.71	-0.2239	-0.0358	0.1881	622.827	0.093523	-319.610683	-319.605193	-319.604249	-319.639659	21.085	
N	-0.0045027011	 1.3764474569	 0.1664369265	-0.565317
C	-0.0031955268	 0.003954334	 0.0625581206	 0.368812
C	-1.2040899459	-0.7387773522	 0.0362051669	-0.059203
N	-1.2101528693	-2.0601996094	-0.0139352101	-0.222354
C	-0.0176635751	-2.6726897222	-0.0341907306	-0.03662
C	 1.1624777154	-1.9432704768	-0.0113446584	-0.013174
N	 1.1834952149	-0.6086498965	 0.0320144017	-0.306995
H	 0.8744910988	 1.8145198528	-0.0644181593	 0.259085
H	-0.8219104314	 1.8662798788	-0.1599910274	 0.256399
H	-2.167417275	-0.2321726105	 0.0569902061	 0.100431
H	-0.0139494242	-3.757304164	-0.0729654361	 0.108024
H	 2.1279289897	-2.4431719409	-0.0340092198	 0.110912
196.8577	365.9998	405.2169	432.9254	484.718	565.1587	588.6405	649.7324	785.2911	858.5619	876.6279	932.6931	979.3037	1018.1579	1061.0723	1091.8308	1212.1229	1265.7261	1348.4194	1352.1716	1461.0935	1516.4534	1583.329	1617.1409	1643.8313	3138.2015	3154.7863	3183.7071	3582.8541	3699.2179
NC1=CN=CC=N1	Nc1cnccn1	
InChI=1S/C4H5N3/c5-4-3-6-1-2-7-4/h1-3H,(H2,5,7)	InChI=1S/C4H5N3/c5-4-3-6-1-2-7-4/h1-3H,(H2,5,7)
