13
gdb 4286	3.93214	1.86878	1.26675	5.7573	63.27	-0.2135	-0.0083	0.2052	873.4745	0.097613	-398.661199	-398.654647	-398.653703	-398.691715	25.38	
O	-0.135212281	 1.3473154465	 0.0108025287	-0.4244
C	 0.0401402821	 0.0058115288	 0.0027387059	 0.517236
C	 1.2215711928	-0.6616749116	-0.0074176056	-0.4277
C	 1.2732436328	-2.1222652557	-0.0150869151	 0.397997
O	 2.3203300644	-2.7615723679	-0.0254826667	-0.407451
C	-0.053680884	-2.7599896938	-0.0117200407	-0.248405
C	-1.1886806995	-2.0330552911	-0.001462865	 0.025363
N	-1.1538015174	-0.6572271635	 0.0058963515	-0.366116
H	 0.7296753776	 1.7716218736	 0.0082516939	 0.316369
H	 2.1588668022	-0.1167442199	-0.0099232218	 0.096251
H	-0.0950844101	-3.8417105451	-0.0176035168	 0.112974
H	-2.1814527163	-2.4659210167	 0.0015452992	 0.135244
H	-1.9993017037	-0.1108585135	 0.0135369324	 0.272636
167.4746	206.9613	357.3646	372.9512	404.7146	488.5954	494.7805	527.6319	533.0528	671.5271	719.7153	764.3781	813.846	854.3768	935.7236	953.2602	1004.0116	1085.4257	1190.3855	1227.7391	1233.8844	1270.671	1389.9049	1439.2334	1561.8829	1635.5579	1695.9499	1731.6918	3193.8257	3205.014	3225.4948	3659.6718	3830.5965
OC1=CC(=O)C=CN1	Oc1cc(=O)cc[nH]1	
InChI=1S/C5H5NO2/c7-4-1-2-6-5(8)3-4/h1-3H,(H2,6,7,8)	InChI=1S/C5H5NO2/c7-4-1-2-6-5(8)3-4/h1-3H,(H2,6,7,8)
