16
gdb 1962	6.85766	1.62409	1.43308	2.8517	62.59	-0.2592	0.0306	0.2898	871.1532	0.136814	-325.787161	-325.779995	-325.779051	-325.818536	26.07	
C	-0.0827948613	 1.6366187768	-0.0017313186	-0.383715
C	-0.0251191437	 0.1447208347	-0.3418482507	-0.190493
C	-1.2967165515	-0.5910586455	 0.0282364192	 0.148576
C	-1.2758392179	-2.1350233683	 0.0416191101	-0.384828
C	-1.5229451842	-1.9714771424	 1.5261980508	 0.440623
N	-1.6791702501	-2.7585281337	 2.4897552745	-0.540191
O	-1.5316195132	-0.5926335913	 1.4841453431	-0.265169
H	 0.8563278664	 2.1350524984	-0.2578372243	 0.117939
H	-0.8882884891	 2.1375814876	-0.5497965509	 0.116889
H	-0.2646457156	 1.7796806335	 1.0671999221	 0.138929
H	 0.1443341765	 0.0033577522	-1.4174459363	 0.105288
H	 0.8176912248	-0.3295470225	 0.176162367	 0.106979
H	-2.1690080327	-0.1543169425	-0.4698572267	 0.091205
H	-2.0767985977	-2.637018531	-0.5029533195	 0.136727
H	-0.3180014466	-2.5932243872	-0.2133710999	 0.134818
H	-1.8333235342	-2.2474644688	 3.3610602503	 0.226423
85.6175	115.4142	201.6242	241.2531	377.4948	415.2779	491.4051	505.138	698.2849	790.6095	810.0363	869.0576	911.8131	944.009	961.9963	1008.6862	1023.8385	1073.873	1094.9456	1109.404	1197.7112	1225.9752	1243.5368	1290.7232	1314.1329	1359.616	1408.8032	1412.8592	1465.4226	1474.8516	1498.4697	1508.2288	1823.4428	3022.9187	3038.553	3047.9714	3067.178	3084.5893	3106.8039	3120.7732	3139.9987	3471.8948
CCC1CC(=N)O1	CC[C@H]1C[C]([NH])O1	
InChI=1S/C5H9NO/c1-2-4-3-5(6)7-4/h4,6H,2-3H2,1H3	InChI=1S/C5H9NO/c1-2-4-3-5(6)7-4/h4,6H,2-3H2,1H3/t4-/m0/s1
