14
gdb 2588	3.10899	2.76471	1.74141	3.7775	57.92	-0.2986	0.0035	0.3021	742.9978	0.112284	-324.570035	-324.562741	-324.561797	-324.601461	25.729	
C	 0.0488171176	 1.4648085854	 0.3040561334	-0.390867
C	-0.0332342637	 0.0300591687	-0.2275441553	-0.263414
C	-1.429362628	-0.5546281691	-0.1202036581	 0.264405
C	-1.6596130288	-1.9705810071	 0.2316741428	-0.211037
O	-1.8584579159	-0.9370474351	 1.1921829052	-0.248019
C	-2.4516300905	 0.1164528091	-0.911504418	 0.265895
N	-3.2350473984	 0.6630287771	-1.5621018471	-0.332519
H	 1.0716509908	 1.8430742814	 0.2282429183	 0.123737
H	-0.602336169	 2.1355702187	-0.264681686	 0.143253
H	-0.2542304035	 1.5051582973	 1.3541712785	 0.138948
H	 0.2811091971	-0.008493589	-1.2771273006	 0.122633
H	 0.6383320279	-0.6244214302	 0.337453777	 0.11705
H	-2.5615394286	-2.472137468	-0.1123960647	 0.140143
H	-0.791896187	-2.6072867393	 0.3957358646	 0.129791
81.4644	156.1473	204.0306	240.0793	261.15	363.7009	437.5176	574.8967	597.7164	665.8231	778.9893	855.4912	886.6967	955.3199	999.8705	1074.4938	1104.6622	1136.9195	1171.5489	1238.135	1296.6222	1344.1813	1393.9774	1414.3305	1469.723	1499.3167	1506.9337	1521.39	2357.3074	3041.1546	3046.2778	3084.7521	3093.0453	3120.256	3123.9469	3188.998
CCC1(CO1)C#N	CC[C@]1(CO1)C#N	
InChI=1S/C5H7NO/c1-2-5(3-6)4-7-5/h2,4H2,1H3	InChI=1S/C5H7NO/c1-2-5(3-6)4-7-5/h2,4H2,1H3/t5-/m1/s1
