19
gdb 1789	3.56238	2.03715	1.65911	1.2653	67.57	-0.2502	0.0829	0.3331	854.3306	0.169908	-310.909223	-310.900761	-310.899817	-310.941389	31.495	
C	 0.1788234604	 1.4761324129	 0.2677045727	-0.380401
C	-0.2312041722	 0.0692245485	-0.1840925947	-0.236738
C	 0.6077588532	-0.481591256	-1.3286274136	 0.347837
C	 0.4357272794	 0.2168206838	-2.6651112251	-0.459392
C	 1.9910406798	-1.0221269404	-0.9936844159	-0.365878
C	 0.8711962746	-1.9640233984	-1.3685661668	 0.056415
O	 0.279036002	-2.7656431459	-0.385866555	-0.420443
H	 1.225945591	 1.4974578504	 0.5885271601	 0.113151
H	 0.0633120627	 2.2138454064	-0.5329106667	 0.113326
H	-0.4363734746	 1.8080084223	 1.1100495455	 0.109449
H	-0.1718250333	-0.6231539424	 0.6599451544	 0.109797
H	-1.2851421476	 0.0781129787	-0.4934385723	 0.091879
H	 0.7591974302	 1.2622896625	-2.6174204941	 0.118247
H	 1.0246595664	-0.27035885	-3.4488672506	 0.109515
H	-0.614261915	 0.20573343	-2.9809304447	 0.115688
H	 2.8058239887	-0.8670418329	-1.6938246191	 0.103947
H	 2.2838398411	-1.0135517277	 0.0517772237	 0.107682
H	 0.9138650487	-2.4267546981	-2.3556116302	 0.079206
H	 0.9267439643	-3.4224777538	-0.1108860573	 0.286712
84.6558	181.2278	201.5579	224.4748	249.567	280.738	290.3861	366.0608	416.6161	464.6818	564.564	677.6622	784.8952	804.1476	882.9745	912.7569	947.0108	1019.356	1022.9207	1036.9883	1050.2788	1086.237	1124.181	1138.7011	1184.348	1259.5352	1279.8884	1322.9995	1340.1924	1377.4076	1408.9766	1417.5943	1425.3096	1480.3452	1487.5821	1495.0947	1501.8015	1507.6695	1510.6665	3018.4883	3023.8124	3032.9312	3082.6506	3083.6116	3087.2569	3096.1431	3100.5397	3107.0947	3120.6268	3207.9852	3807.6372
CCC1(C)CC1O	CC[C@@]1(C)C[C@H]1O	
InChI=1S/C6H12O/c1-3-6(2)4-5(6)7/h5,7H,3-4H2,1-2H3	InChI=1S/C6H12O/c1-3-6(2)4-5(6)7/h5,7H,3-4H2,1-2H3/t5-,6+/m1/s1
