14
gdb 1114	5.47524	1.74154	1.34345	5.8524	56.02	-0.2424	-0.0193	0.2232	875.003	0.110956	-361.779217	-361.770918	-361.769974	-361.812848	27.395	
C	-0.1620051175	 1.5027163294	-0.0371308094	-0.501591
C	 0.162628345	 0.0156118905	 0.0019419	 0.414356
O	 1.282968316	-0.4203894939	 0.0356741935	-0.291574
N	-0.9910495343	-0.7859111503	-0.0059482741	-0.374388
C	-1.0710240123	-2.1881493337	 0.0224657291	 0.414356
C	-2.5086858048	-2.6892811887	 0.002720441	-0.501591
O	-0.1133528638	-2.9147543287	 0.0586346631	-0.291575
H	 0.7725222095	 2.0619832387	-0.02910853	 0.158968
H	-0.7282983898	 1.7561782549	-0.9399731314	 0.141047
H	-0.7662720829	 1.7943143499	 0.8288326665	 0.141059
H	-1.8711137795	-0.2935318106	-0.035558113	 0.249858
H	-3.0294527348	-2.3498209834	-0.899282052	 0.140944
H	-2.496687939	-3.7781342632	 0.0237048753	 0.158968
H	-3.0648984818	-2.3163182109	 0.8696703114	 0.141162
52.6821	87.7667	95.4967	110.4203	183.2235	344.9628	387.8237	520.287	567.343	569.9934	649.1099	659.2147	886.7215	898.2466	1020.5826	1033.306	1050.6099	1050.7837	1208.3668	1232.7912	1383.6245	1385.9163	1462.2042	1471.3516	1482.8208	1483.0814	1507.0281	1814.7898	1869.5386	3039.5078	3039.7574	3101.6803	3101.89	3166.9297	3167.0604	3617.3163
CC(=O)NC(C)=O	CC(=O)NC(=O)C	
InChI=1S/C4H7NO2/c1-3(6)5-4(2)7/h1-2H3,(H,5,6,7)	InChI=1S/C4H7NO2/c1-3(6)5-4(2)7/h1-2H3,(H,5,6,7)
