17
gdb 1556	5.01499	1.24325	1.06355	3.4376	61.53	-0.2471	-0.0198	0.2273	1079.6708	0.145663	-346.859809	-346.850881	-346.849937	-346.894188	29.991	
C	-0.0906254516	 1.5627530052	-0.0691435495	-0.409409
C	 0.0110929439	 0.02696449	-0.0097698877	-0.066318
C	 0.7955009969	-0.4845292703	 1.2159603134	-0.181786
C	 2.2716507724	-0.1004966878	 1.2173679532	-0.080703
O	 2.8637434407	-0.720176562	 2.3482906425	-0.418931
C	-1.3903534358	-0.5519908373	 0.0414477677	 0.162648
O	-1.8710433976	-1.2887063391	-0.7793973949	-0.248292
H	 0.896829851	 2.0242542761	-0.1475395244	 0.128701
H	-0.6759362648	 1.8828160387	-0.9365631808	 0.130653
H	-0.5746361969	 1.9593127325	 0.8306966518	 0.123395
H	 0.4732624074	-0.351445408	-0.9284962779	 0.094393
H	 0.3350678215	-0.1121252425	 2.1398504977	 0.109009
H	 0.7402181086	-1.5786197397	 1.2563191367	 0.121292
H	 2.7423987226	-0.441608456	 0.2806463403	 0.089837
H	 2.3867341043	 0.9929656282	 1.2627039223	 0.089376
H	 3.79212327	-0.4712751905	 2.3772831478	 0.287657
H	-1.9765802726	-0.2309021076	 0.9370034418	 0.068479
48.5752	64.8883	100.5679	173.1241	214.1763	258.776	299.1991	334.6343	385.0495	405.7522	582.3274	793.1524	880.3826	913.7531	954.2328	979.2333	1033.8154	1068.5913	1117.9052	1159.1461	1173.4788	1228.6535	1242.6586	1290.6337	1316.744	1349.0448	1365.2926	1407.0959	1428.0717	1462.5039	1488.9502	1498.4493	1505.4717	1528.2248	1837.9318	2835.7621	2965.5436	2998.8027	3029.2239	3036.2641	3051.6724	3077.0031	3104.0946	3119.7263	3830.0045
CC(CCO)C=O	C[C@@H](CCO)C=O	
InChI=1S/C5H10O2/c1-5(4-7)2-3-6/h4-6H,2-3H2,1H3	InChI=1S/C5H10O2/c1-5(4-7)2-3-6/h4-6H,2-3H2,1H3/t5-/m0/s1
