17
gdb 4488	3.59106	1.67286	1.15765	0.6448	72.9	-0.1696	0.06	0.2296	1034.0912	0.141152	-363.908814	-363.899815	-363.898871	-363.942672	31.927	
C	-0.0172751292	 1.5140210997	 0.0771300526	-0.500916
C	 0.0093577446	 0.0276340403	-0.0408238446	 0.314242
C	 0.0273203251	-0.7990955199	-1.1343612381	-0.312595
C	 0.0500934901	-2.1653741197	-0.6904695826	 0.151394
C	 0.0743171529	-3.4006590563	-1.538317343	-0.511495
C	 0.0447668122	-2.1019521011	 0.6822437988	 0.287034
O	 0.0585359699	-3.048546508	 1.6601864436	-0.439892
N	 0.0202646421	-0.7932739882	 1.0771971763	-0.350031
H	 0.8577064804	 1.9087523933	 0.6106279202	 0.120591
H	-0.022275558	 1.9610409535	-0.9198272067	 0.134373
H	-0.9087635027	 1.8774700152	 0.6054919105	 0.120616
H	 0.0245252551	-0.4698134871	-2.1635771198	 0.08204
H	 0.9590865119	-3.4413702491	-2.1853638636	 0.126839
H	 0.0884626481	-4.3147883861	-0.9312472722	 0.090181
H	-0.8045298315	-3.4722589413	-2.1907326374	 0.12685
H	 0.0757185476	-3.9130806314	 1.2385083942	 0.302621
H	 0.0131213913	-0.4952290439	 2.0370618417	 0.258146
40.937	121.6379	162.4493	181.2931	239.5173	246.6947	277.1088	326.4583	402.5088	483.1415	586.1897	636.251	643.389	666.5721	785.6631	799.1606	980.7641	1000.6998	1019.4116	1057.3456	1063.0545	1147.3389	1176.6226	1211.1031	1262.3655	1357.8625	1414.9905	1419.6516	1427.2094	1474.894	1477.6996	1497.8217	1507.2972	1546.3304	1587.3028	1671.3292	3006.0754	3008.7186	3045.4357	3061.5302	3063.5158	3118.7375	3232.3644	3681.2257	3841.0428
CC1=CC(C)=C(O)N1	Cc1cc(C)c(O)[nH]1	
InChI=1S/C6H9NO/c1-4-3-5(2)7-6(4)8/h3,7-8H,1-2H3	InChI=1S/C6H9NO/c1-4-3-5(2)7-6(4)8/h3,7-8H,1-2H3
