19
gdb 1268	6.00945	1.06449	0.95212	0.088	77.09	-0.2393	0.0609	0.3002	1289.1717	0.169677	-273.773955	-273.764645	-273.7637	-273.809344	32.262	
C	-0.0374300445	 1.5649705485	 0.0649530423	-0.362002
C	 0.0109812067	 0.0272538935	 0.0027457585	-0.311019
C	 0.6773051682	-0.4775284316	-1.1942645304	 0.028922
C	 1.2381654145	-0.8660126149	-2.1879666002	 0.089467
C	 1.897136866	-1.3585872254	-3.3990530892	-0.118563
C	 1.969336802	-2.8986581705	-3.4050401123	-0.371728
C	 1.2000817891	-0.8276034692	-4.6675090076	-0.372002
H	 0.9718951501	 1.9855160797	 0.0592187638	 0.126201
H	-0.5756429223	 1.9714189236	-0.7957323758	 0.125956
H	-0.5441477524	 1.8957613348	 0.976684715	 0.11146
H	 0.521672884	-0.3575791967	 0.8952246055	 0.125188
H	-1.0109300629	-0.3715176625	 0.0485490408	 0.124967
H	 2.9283986751	-0.9774100711	-3.4020245068	 0.100056
H	 2.4905566112	-3.2712089118	-2.5192855751	 0.121345
H	 0.9637858531	-3.3307989644	-3.4122422277	 0.121649
H	 2.501333466	-3.2514738179	-4.2946382642	 0.108916
H	 1.1744605677	 0.2652706122	-4.6736870666	 0.120868
H	 1.7296920724	-1.1670304571	-5.5637545751	 0.108844
H	 0.168785126	-1.1903978691	-4.7201010949	 0.121474
11.3072	89.5877	125.7287	188.3529	221.2991	228.5314	267.3752	320.7219	362.973	469.3892	508.7835	555.5208	677.6236	785.5612	864.4555	930.5801	953.8632	963.2848	1063.7719	1089.6455	1104.3323	1120.5528	1151.3515	1208.466	1286.4253	1327.4697	1349.0698	1353.4216	1394.2552	1407.5568	1416.5349	1477.2012	1485.6401	1489.0664	1494.2957	1497.9779	1505.792	1510.2181	2361.6555	2999.4243	3015.9049	3034.1032	3037.8521	3041.7329	3042.7654	3104.3969	3109.7426	3115.3928	3117.2073	3119.1742	3122.136
CCC#CC(C)C	CCC#CC(C)C	
InChI=1S/C7H12/c1-4-5-6-7(2)3/h7H,4H2,1-3H3	InChI=1S/C7H12/c1-4-5-6-7(2)3/h7H,4H2,1-3H3
