12
gdb 3776	8.10639	2.09056	1.67954	1.2641	53.72	-0.2152	-0.0187	0.1965	696.8808	0.090664	-352.83693	-352.830084	-352.829139	-352.867944	23.081	
C	 0.0247697978	 1.418020486	 0.0034541676	-0.33439
N	 0.0500353054	-0.0336097815	-0.0194195375	-0.356272
C	-1.074335236	-0.6218891347	-0.0317904711	 0.544057
N	-2.3936090225	-0.1797645906	-0.0287771759	-0.312022
N	-3.285282568	-1.2174010735	-0.0469427908	-0.083186
N	-2.6246559535	-2.2962083008	-0.0618690882	-0.061647
N	-1.3029305965	-1.9897283268	-0.0540366888	-0.31253
H	 1.0498039717	 1.7961277273	 0.0196882546	 0.13001
H	-0.467334484	 1.8511751282	-0.8835237669	 0.102507
H	-0.4852326283	 1.8234833599	 0.8934864109	 0.101953
H	-2.7315541033	 0.7651993696	-0.0148163438	 0.28971
H	-0.6074926028	-2.714968233	-0.0619165103	 0.29181
89.5065	126.3811	199.6363	205.5819	331.7375	429.9297	500.0971	703.3775	718.5731	720.8565	984.3736	1008.9576	1019.5054	1075.4375	1108.2864	1121.0765	1171.0233	1301.3253	1369.3749	1388.8705	1447.9522	1493.7158	1506.6654	1523.9525	1794.9788	2950.977	2990.3112	3101.207	3700.4501	3712.8164
CN=C1NN=NN1	CN=c1[nH]nn[nH]1	
InChI=1S/C2H5N5/c1-3-2-4-6-7-5-2/h1H3,(H2,3,4,5,6,7)	InChI=1S/C2H5N5/c1-3-2-4-6-7-5-2/h1H3,(H2,3,4,5,6,7)
