12
gdb 3675	6.18294	2.69067	1.89682	3.2499	57.25	-0.2371	-0.0672	0.17	636.8701	0.091367	-319.572842	-319.566801	-319.565857	-319.605232	20.709	
C	-0.0233869655	 1.5137042478	 0.0298696396	-0.489515
C	-0.0000270939	 0.0129209692	 0.0156348387	 0.324824
C	 0.0658960153	-0.7241808262	-1.1790400252	-0.011858
N	 0.0869283468	-2.04896096	-1.2011546611	-0.166607
N	 0.0434659952	-2.7042267632	-0.0381857135	-0.187032
C	-0.0186168036	-1.9774416908	 1.0731066401	 0.103706
N	-0.0431654348	-0.6422661412	 1.1713195489	-0.282496
H	 0.8741346707	 1.9217087277	-0.4475435686	 0.14769
H	-0.8857002921	 1.8950701503	-0.527731692	 0.147704
H	-0.0756985209	 1.8724375664	 1.0583683368	 0.153229
H	 0.1028640642	-0.2320769863	-2.1473307787	 0.123973
H	-0.0523917213	-2.5411580537	 2.0015737551	 0.136381
5.2007	178.618	341.5166	371.3737	485.1151	562.1115	687.2858	804.4774	859.8376	923.4708	981.2888	1001.6701	1029.9393	1064.7595	1076.1998	1181.5188	1258.9091	1316.7867	1339.972	1405.5433	1466.6011	1478.841	1481.1503	1571.2825	1594.9443	3041.0443	3097.3433	3151.7489	3168.8565	3178.1299
CC1=CN=NC=N1	Cc1cnncn1	
InChI=1S/C4H5N3/c1-4-2-6-7-3-5-4/h2-3H,1H3	InChI=1S/C4H5N3/c1-4-2-6-7-3-5-4/h2-3H,1H3
