16
gdb 1744	5.30189	1.66512	1.49897	3.1736	61.23	-0.2388	-0.02	0.2188	844.8776	0.135252	-325.762375	-325.754666	-325.753721	-325.79469	27.334	
C	 0.0225431933	 1.5935026863	-0.2822667362	-0.462873
C	-0.0474729446	 0.0868955353	-0.1295267451	 0.318008
C	-1.3978280753	-0.457673381	 0.3213424908	-0.316478
C	-1.7289234799	-0.0296655197	 1.7366472187	 0.157264
O	-2.7547667786	 0.504435922	 2.073798595	-0.244087
C	 0.8310201916	-0.7601051605	-0.9763989907	-0.283109
N	 1.1010536961	-0.6235013503	 0.4677017271	-0.343787
H	 1.0134827008	 1.9086955156	-0.6242147257	 0.115126
H	-0.7143135207	 1.9490587678	-1.0106998066	 0.13206
H	-0.1863076892	 2.1000487346	 0.6670449926	 0.133654
H	-2.2049298159	-0.1393237984	-0.3453292609	 0.116174
H	-1.3498785788	-1.5538439614	 0.3178790191	 0.125679
H	-0.9240703584	-0.2535892767	 2.471895506	 0.090473
H	 0.5036872427	-1.7477368939	-1.2903023778	 0.118307
H	 1.4929906237	-0.2607626202	-1.6792138454	 0.11336
H	 1.8732026031	 0.0221048505	 0.6147844791	 0.230228
62.9909	76.3005	205.7972	219.6936	328.8133	352.4997	374.3849	479.8346	492.5127	702.3908	808.9019	843.7521	916.8318	935.0856	964.4425	988.8082	1028.5779	1066.3054	1093.5693	1118.9398	1147.1989	1210.3947	1266.8731	1288.3507	1349.3306	1384.6268	1419.426	1421.5882	1449.8172	1486.2786	1499.5075	1516.8064	1831.0915	2889.3288	3026.8026	3034.2899	3090.6997	3099.7141	3103.6066	3106.0306	3190.0629	3496.6298
CC1(CC=O)CN1	C[C@@]1(CC=O)CN1	
InChI=1S/C5H9NO/c1-5(2-3-7)4-6-5/h3,6H,2,4H2,1H3	InChI=1S/C5H9NO/c1-5(2-3-7)4-6-5/h3,6H,2,4H2,1H3/t5-/m1/s1
