13
gdb 3484	5.99389	2.93053	2.77446	1.3185	56.01	-0.2188	0.0727	0.2916	541.0403	0.101504	-307.193849	-307.188624	-307.187679	-307.222317	21.551	
O	-0.0778371366	 1.3761086959	 0.0677315935	-0.449446
C	 0.0313653652	 0.0132303809	 0.0315390098	 0.384609
C	 0.9255363478	-1.005789227	 0.8318510063	-0.182323
C	 0.8104483846	-1.9859134627	-0.3282124271	-0.079268
C	-0.2214647842	-2.0066795596	 0.7896036313	-0.073437
C	-1.0992009486	-0.9871739979	 0.0065861025	-0.137651
C	-0.0599197247	-0.9733180287	-1.1282148092	-0.186036
H	 0.6678855389	 1.7556641792	-0.41212574	 0.288371
H	 1.7124997527	-0.8927443578	 1.5659545857	 0.08744
H	 1.5080272498	-2.7503471039	-0.6448980871	 0.084463
H	-0.4715798603	-2.7897767934	 1.4934010202	 0.085231
H	-2.1657796836	-0.8183043026	-0.0474780731	 0.091073
H	-0.2150863509	-0.8038152124	-2.185297363	 0.086975
285.5914	331.7669	385.3538	585.3596	654.7427	728.3789	764.8753	780.4709	796.0282	840.2126	846.318	879.4324	902.4215	935.1773	942.4073	972.6226	1008.8692	1023.595	1062.8713	1095.5595	1165.0765	1199.3819	1237.7617	1254.4169	1307.3487	1321.5921	1467.3276	3186.3346	3191.2334	3204.2948	3207.099	3216.3028	3774.9415
OC12C3C4C3C1C24	O[C@@]12[C@@H]3[C@H]4[C@@H]3[C@@H]1[C@@H]24	
InChI=1S/C6H6O/c7-6-3-1-2(3)5(6)4(1)6/h1-5,7H	InChI=1S/C6H6O/c7-6-3-1-2(3)5(6)4(1)6/h1-5,7H/t1-,2+,3-,4+,5-,6-
