7
gdb 828	5.47818	2.98206	2.92952	1.5527	26.44	-0.2957	-0.0714	0.2243	454.0732	0.033264	-451.528971	-451.523486	-451.522541	-451.558621	17.598	
F	 0.0369043981	 0.0548354636	-0.0612086596	-0.043463
C	-0.0173288099	 1.3744882752	 0.010797821	 0.223031
F	 1.2278166719	 1.8680415757	 0.0004056986	-0.072541
F	-0.6590561561	 1.8486380694	-1.0650521204	-0.072542
C	-0.7415317284	 1.8573015126	 1.2845273819	 0.037704
O	-1.1923510992	 1.1058102745	 2.0969009016	-0.195935
H	-0.7943440464	 2.9621361889	 1.3580632169	 0.123747
72.9793	248.1519	300.9262	428.7658	525.1089	529.8372	708.7627	847.8629	985.2345	1199.7199	1212.0413	1314.6565	1410.5982	1871.9196	2944.6717
FC(F)(F)C=O	FC(F)(F)C=O	
InChI=1S/C2HF3O/c3-2(4,5)1-6/h1H	InChI=1S/C2HF3O/c3-2(4,5)1-6/h1H
