15
gdb 3354	4.90407	3.08011	2.28952	1.5865	61.33	-0.2424	0.019	0.2614	610.4357	0.127465	-308.509197	-308.503694	-308.50275	-308.538358	21.483	
C	-0.0717591033	 1.468545368	-0.2990979634	-0.0734
O	 1.1290576414	 1.7089900945	 0.4629100825	-0.292326
C	 1.3717466791	 0.2924892161	 0.6314439506	 0.129443
C	 1.3535433625	-0.1473810868	 2.1031292071	-0.271673
C	-0.0930875629	-0.5276201846	 2.3267312088	-0.056681
C	-0.8188812328	-0.4911391042	 1.2080364102	-0.078631
C	-0.0152348964	-0.046082281	 0.0175979939	-0.113641
H	-0.9303240456	 2.0243623729	 0.0952445257	 0.101841
H	 0.0643035668	 1.7151838412	-1.3609123742	 0.093878
H	 2.2668877828	-0.0227254431	 0.0842105282	 0.070587
H	 2.0316696878	-0.9897011717	 2.295567782	 0.102061
H	 1.6822041926	 0.6803770083	 2.7429372414	 0.122016
H	-0.4751260155	-0.8039334866	 3.3037335546	 0.0944
H	-1.875042486	-0.7294213035	 1.1420304274	 0.093361
H	-0.0715435204	-0.7172734994	-0.8427651248	 0.078766
144.2192	257.4615	380.008	462.173	661.0003	740.2244	767.9741	810.5184	859.8956	888.0056	895.0267	946.4721	974.2133	1006.4825	1011.7996	1041.0632	1065.9489	1079.4867	1129.8342	1164.8407	1179.621	1220.9999	1252.8535	1305.381	1311.8636	1335.4774	1359.3001	1388.2966	1465.595	1520.28	1676.8996	3003.442	3015.4929	3044.6939	3058.5754	3061.2394	3080.9298	3179.1082	3204.0122
C1OC2CC=CC12	C1O[C@H]2CC=C[C@@H]12	
InChI=1S/C6H8O/c1-2-5-4-7-6(5)3-1/h1-2,5-6H,3-4H2	InChI=1S/C6H8O/c1-2-5-4-7-6(5)3-1/h1-2,5-6H,3-4H2/t5-,6-/m0/s1
