15
gdb 1685	3.5601	2.31053	1.72325	4.6037	52.84	-0.2468	0.0186	0.2654	753.4158	0.126811	-379.000257	-378.992753	-378.991808	-379.032085	27.099	
N	 0.2222477019	 1.3228402552	 0.5267770025	-0.536927
C	 0.0554273887	-0.07021192	 0.0882195446	-0.11383
C	-1.075874776	-0.8246118988	 0.8011978881	-0.157052
N	-2.3210192513	-0.0621728094	 0.6567388016	-0.525456
H	-0.701088911	 1.6690059829	 0.7864167718	 0.253194
H	-2.7079044722	-0.2293579859	-0.2681162527	 0.249239
H	-3.0142261977	-0.3864591139	 1.321805944	 0.236212
C	-0.1735099252	-0.0828736805	-1.4412656818	 0.438286
O	 0.2274140104	 1.0378437263	-2.04593799	-0.36603
O	-0.6530475171	-1.0190444866	-2.0284300349	-0.354129
H	 0.8176095121	 1.3824899875	 1.3449538984	 0.240855
H	 0.4892215316	 1.6325313924	-1.3044734704	 0.307028
H	 0.999302721	-0.6049405682	 0.2494630372	 0.112712
H	-1.1240154645	-1.8445070152	 0.3985356817	 0.120635
H	-0.8345140708	-0.8914231057	 1.8677407199	 0.095264
66.4184	110.0301	242.9049	281.7152	305.064	365.8554	386.1609	525.8624	548.9385	581.9144	761.0244	815.7462	862.4942	890.9236	910.4429	957.2384	1002.1987	1072.0851	1113.9139	1179.6647	1209.1474	1225.4121	1310.3147	1340.3208	1396.5037	1414.0476	1439.8079	1491.6397	1649.0345	1659.7496	1857.4412	3019.3541	3048.7916	3071.8859	3423.9274	3467.3364	3500.4437	3576.3481	3581.3281
NC(C[NH3+])C([O-])=O	N[C@@H](CN)C(=O)O	
InChI=1S/C3H8N2O2/c4-1-2(5)3(6)7/h2H,1,4-5H2,(H,6,7)	InChI=1S/C3H8N2O2/c4-1-2(5)3(6)7/h2H,1,4-5H2,(H,6,7)/t2-/m0/s1
