17
gdb 1269	6.50128	1.03506	0.95869	1.8282	69.76	-0.2487	0.0417	0.2904	1252.8656	0.14603	-309.69664	-309.687536	-309.686592	-309.733027	31.088	
C	 0.0319686455	 1.5371985474	-0.2169918211	-0.363552
C	-0.0307259481	 0.0633640778	 0.2237897451	-0.313948
C	-1.3848589256	-0.4809365625	 0.2159241033	 0.03167
C	-2.5161545599	-0.8966807065	 0.1930535707	 0.06962
C	-3.8778763746	-1.4409459168	 0.2139868267	-0.013674
C	-3.8986426681	-2.9282431734	-0.1682208557	-0.381653
O	-4.5192880601	-1.2176153206	 1.4698229061	-0.415756
H	 1.0642680384	 1.8989178002	-0.1932723345	 0.114227
H	-0.3515610445	 1.6546187182	-1.2340561685	 0.128823
H	-0.57015147	 2.1658329858	 0.4443804734	 0.130617
H	 0.6085397624	-0.5438099726	-0.430100237	 0.129619
H	 0.392799263	-0.0362815817	 1.2315978647	 0.129136
H	-4.4938466033	-0.8871796248	-0.5053373894	 0.114433
H	-3.2907412053	-3.5107323301	 0.5316837303	 0.114628
H	-4.9265955505	-3.2988222449	-0.1347559042	 0.122921
H	-3.4955606715	-3.0780399282	-1.1741466822	 0.122449
H	-3.9211265779	-1.5359170874	 2.1549653922	 0.280441
3.2764	96.3749	115.4482	193.122	215.778	252.0972	274.7857	349.3966	384.3861	490.2419	533.5288	565.0794	704.3944	784.3177	880.9748	948.1624	1019.7451	1063.9684	1085.7457	1094.8368	1105.2202	1178.4575	1280.2097	1285.7317	1339.6264	1349.766	1397.68	1408.8497	1417.6207	1473.99	1487.453	1491.396	1494.148	1505.0967	2358.1575	3019.5994	3033.7625	3038.7466	3044.955	3046.3497	3113.3641	3118.1446	3125.0504	3125.3708	3805.4532
CCC#CC(C)O	CCC#C[C@@H](C)O	
InChI=1S/C6H10O/c1-3-4-5-6(2)7/h6-7H,3H2,1-2H3	InChI=1S/C6H10O/c1-3-4-5-6(2)7/h6-7H,3H2,1-2H3/t6-/m1/s1
