15
gdb 1776	4.86152	1.86571	1.69157	3.9352	58.71	-0.2487	-0.0178	0.2309	772.5011	0.12267	-345.649886	-345.642135	-345.641191	-345.68149	27.719	
C	-0.124959514	 1.5644069635	 0.0217285222	-0.45956
C	-0.0479611257	 0.0549467598	 0.0595009287	 0.213807
C	 1.2846019031	-0.6460963948	-0.2397566882	-0.368123
C	 0.7525445637	-0.6419079154	 1.1543042557	 0.076656
O	 1.3101056588	 0.1865611945	 2.1262757517	-0.414512
C	-1.2621377003	-0.6734780858	-0.388594426	 0.122001
O	-2.27361851	-0.1474000316	-0.781811561	-0.263183
H	 0.7636837773	 2.00842651	 0.4720398322	 0.126512
H	-0.2208057516	 1.9172038796	-1.0090800325	 0.126952
H	-1.0026456652	 1.9142954391	 0.5718523453	 0.136548
H	 1.2712223708	-1.5730628457	-0.8042063811	 0.122446
H	 2.1125660447	 0.0179358679	-0.4622902348	 0.129433
H	 0.3411871648	-1.5775803752	 1.5349275471	 0.096792
H	 2.1748646528	-0.1674501144	 2.3590180715	 0.294474
H	-1.1765559191	-1.7858219816	-0.3384765408	 0.059756
106.1767	141.2312	217.2473	246.4734	254.2302	277.64	362.8972	444.4582	472.2043	590.0505	758.9063	777.6818	873.8221	912.2626	974.4306	1020.1174	1048.8867	1073.6157	1112.3994	1121.4954	1187.0421	1271.496	1287.1487	1350.0213	1407.5701	1423.6252	1442.9054	1477.038	1486.2891	1498.6146	1818.5049	2839.6719	3053.6062	3092.353	3116.6913	3129.1692	3146.3682	3222.6304	3808.7156
CC1(CC1O)C=O	C[C@]1(C[C@H]1O)C=O	
InChI=1S/C5H8O2/c1-5(3-6)2-4(5)7/h3-4,7H,2H2,1H3	InChI=1S/C5H8O2/c1-5(3-6)2-4(5)7/h3-4,7H,2H2,1H3/t4-,5+/m1/s1
