11
gdb 3676	6.2664	2.73535	1.92692	5.0522	53.66	-0.2565	-0.0879	0.1686	617.7473	0.077777	-335.56643	-335.560367	-335.559423	-335.596868	20.659	
C	-0.0213039019	 1.5133163004	 0.0307337577	-0.483916
C	-0.0003286696	 0.0162594741	-0.0110401846	 0.368277
C	 0.0717218784	-0.7205163411	-1.1979857856	-0.003768
N	 0.0878575266	-2.0404451669	-1.1816861173	-0.159345
N	 0.0333381623	-2.6574877497	 0.0025071274	-0.055908
N	-0.0346476619	-1.9798535079	 1.1206679494	-0.057668
N	-0.0528430334	-0.6467333218	 1.1402789994	-0.220215
H	 0.8834845623	 1.9260524431	-0.4282134089	 0.153556
H	-0.8771343016	 1.9045117566	-0.5296729323	 0.153354
H	-0.0848034755	 1.8520575335	 1.065480346	 0.163589
H	 0.1170308044	-0.2447658602	-2.1748071913	 0.142045
58.8784	141.2553	318.938	334.7238	445.869	570.2878	680.6966	832.6366	836.9543	903.1029	949.0018	1003.8101	1067.2229	1078.3271	1095.3379	1209.7076	1313.1289	1371.4755	1409.003	1456.4341	1480.1859	1536.8893	1587.8758	3042.676	3100.9418	3152.9115	3162.0239
CC1=CN=NN=N1	Cc1cnnnn1	
InChI=1S/C3H4N4/c1-3-2-4-6-7-5-3/h2H,1H3	InChI=1S/C3H4N4/c1-3-2-4-6-7-5-3/h2H,1H3
