17
gdb 4076	4.0889	1.55269	1.20621	0.6039	73.06	-0.2393	0.0138	0.2531	992.7858	0.143325	-363.84351	-363.836117	-363.835173	-363.875195	28.45	
O	-0.0577531016	 1.3803738888	-0.1191045758	-0.398915
N	 0.0689888381	-0.0208696813	-0.0651069378	-0.201805
C	-1.0616338061	-0.6016627372	 0.0585749252	 0.383436
C	-1.0636174967	-2.1057238313	 0.0933827022	-0.281003
C	-1.8614393551	-2.6354949866	 1.2989476155	-0.253246
C	-3.1798048906	-1.9199496578	 1.4415581223	-0.058066
C	-3.4173342386	-0.7185826692	 0.9174903634	-0.051426
C	-2.3935473453	 0.0975397855	 0.1705065479	-0.340261
H	 0.8618113153	 1.6608480409	-0.1683611809	 0.30502
H	-1.54770373	-2.4707894138	-0.823399007	 0.11253
H	-0.0346738591	-2.4721902994	 0.092905882	 0.115143
H	-2.0272932813	-3.7130745991	 1.1844432841	 0.104842
H	-1.2719107775	-2.5204431064	 2.219839241	 0.118232
H	-3.9612385333	-2.4243136454	 2.0043744305	 0.086762
H	-4.3919768028	-0.254260729	 1.0464581221	 0.087688
H	-2.2468738806	 1.0678396376	 0.6577659963	 0.142613
H	-2.7625863948	 0.3440286338	-0.837314551	 0.128456
79.273	156.7417	252.3749	327.3386	370.7539	395.7985	418.8936	502.0392	532.6195	616.595	684.7294	747.4626	782.7796	880.3299	941.1485	944.6758	969.9007	993.9121	1005.578	1045.3247	1048.327	1164.9049	1183.0549	1213.9543	1255.6991	1268.7378	1341.0167	1341.3479	1363.8124	1412.5606	1415.3679	1455.7637	1473.158	1484.0936	1726.9146	1737.9721	2994.9738	3005.4568	3014.6443	3053.7528	3063.3252	3106.4021	3145.8412	3169.1089	3823.9745
ON=C1CCC=CC1	ON=C1CCC=CC1	
InChI=1S/C6H9NO/c8-7-6-4-2-1-3-5-6/h1-2,8H,3-5H2	InChI=1S/C6H9NO/c8-7-6-4-2-1-3-5-6/h1-2,8H,3-5H2
