14
gdb 4806	4.64967	1.478	1.13104	2.9629	60.15	-0.2084	0.0065	0.2148	990.1216	0.107897	-415.881975	-415.87424	-415.873296	-415.914537	27.62	
N	 0.1939444563	 1.2885046467	 0.2624113193	-0.597964
C	 0.0240390996	-0.0761261713	 0.0756449719	 0.270812
C	-1.0070710078	-0.788781199	-0.450097099	-0.129427
O	-0.6200205799	-2.1200752525	-0.4738001448	-0.17826
C	 0.6150067553	-2.1208474672	 0.0403629819	 0.380688
C	 1.3789175612	-3.4013045895	 0.1629402172	-0.141048
O	 2.6111434001	-3.1917515017	 0.8054532932	-0.42095
N	 1.0584807194	-0.9515811111	 0.3859775294	-0.372307
H	 0.8738785595	 1.4881194672	 0.9834179316	 0.257064
H	-0.6641128663	 1.7983412288	 0.417274433	 0.251053
H	-1.986818727	-0.5623808892	-0.8285355456	 0.135917
H	 0.7804824844	-4.1306913642	 0.7281052104	 0.124568
H	 1.5234280307	-3.8280245551	-0.8433215591	 0.119702
H	 2.7241623944	-2.2345749118	 0.8817277406	 0.30015
48.119	171.7101	187.2014	238.7416	250.7185	347.1701	392.3125	476.4423	627.6658	641.7698	653.6808	682.9419	743.1826	774.5725	1004.1463	1032.5028	1041.6612	1092.3186	1104.2665	1124.6031	1237.1006	1247.5108	1307.5048	1365.0885	1397.7551	1481.4761	1511.8745	1605.9172	1636.7484	1678.1084	2972.811	3010.5063	3308.4952	3558.3653	3657.1414	3749.1989
NC1=COC(CO)=N1	Nc1coc(CO)n1	
InChI=1S/C4H6N2O2/c5-3-2-8-4(1-7)6-3/h2,7H,1,5H2	InChI=1S/C4H6N2O2/c5-3-2-8-4(1-7)6-3/h2,7H,1,5H2
