12
gdb 1501	6.93597	1.39092	1.17571	4.0629	53.34	-0.2881	-0.0882	0.1998	938.5369	0.087438	-360.510716	-360.502986	-360.502042	-360.543333	24.938	
C	 0.0122365709	 1.4059804445	 0.0594653171	-0.233518
O	-0.0040429549	-0.0062241097	-0.0072618819	-0.215015
C	 0.6392123971	-0.60682857	 1.0643068988	-0.15712
C	 0.5800217204	-2.1148247194	 0.9213563417	 0.284527
O	 0.0603934038	-2.7181428675	 0.0242346254	-0.234306
C	 1.2502982535	-2.8264344748	 2.0362474473	 0.205578
N	 1.7758569127	-3.3712199227	 2.9101652218	-0.291607
H	 1.0395694961	 1.7999339089	 0.0532227613	 0.115992
H	-0.5155518252	 1.7709922278	-0.8232139872	 0.145213
H	-0.4977469358	 1.7747274135	 0.962013484	 0.115989
H	 1.7059114572	-0.32057649	 1.1423091518	 0.132136
H	 0.1862788143	-0.3459409006	 2.0403364798	 0.132132
80.3407	86.7413	121.0667	226.4017	226.5201	278.5325	367.495	467.748	577.7658	601.2467	848.9716	999.4293	1010.1998	1092.4357	1174.92	1182.225	1243.2258	1248.3475	1407.5384	1461.053	1487.5719	1489.1985	1513.0229	1822.6058	2338.8652	2928.9278	2946.9594	2983.4952	3033.929	3134.1304
COCC(=O)C#N	COCC(=O)C#N	
InChI=1S/C4H5NO2/c1-7-3-4(6)2-5/h3H2,1H3	InChI=1S/C4H5NO2/c1-7-3-4(6)2-5/h3H2,1H3
