14
gdb 3281	5.30661	2.59558	2.0623	2.0233	57.07	-0.2343	-0.0308	0.2035	640.4692	0.114101	-324.542706	-324.536795	-324.535851	-324.572674	22.067	
O	 0.0808723928	-0.0067247073	-0.4999112717	-0.279451
C	 0.0212739886	 1.1316118188	-0.1445915835	 0.384848
C	-1.1028769136	 2.0983146192	 0.2827442791	-0.304209
N	-0.0920050424	 3.1762050904	 0.5104593771	-0.125848
C	 0.4652104928	 3.1602984241	 1.9060096941	-0.163306
C	 1.7041700714	 2.3365917437	 1.4630870053	-0.252986
C	 1.0415008233	 2.2640065436	 0.0657398104	-0.097542
H	-1.7949439626	 2.3410505837	-0.5318031851	 0.139034
H	-1.6892932043	 1.8021042353	 1.1600982239	 0.129019
H	 0.6820031893	 4.1674252899	 2.271076333	 0.115606
H	-0.1882914158	 2.6642568476	 2.6325657287	 0.104887
H	 2.6387476068	 2.8996602478	 1.4648632	 0.122183
H	 1.8710195775	 1.380975642	 1.9640009035	 0.123101
H	 1.6366975162	 2.5468093612	-0.8069708047	 0.104664
80.7765	181.384	394.7687	412.6831	505.0623	630.836	718.0844	754.5452	799.1166	867.8471	909.4505	934.1215	970.8422	977.6149	1040.5764	1061.3436	1109.4853	1158.7277	1184.5194	1190.3229	1219.8108	1248.0092	1256.4758	1290.104	1314.6643	1450.6241	1484.9736	1511.2698	1900.8434	3031.7174	3037.6897	3072.0761	3079.7963	3081.9998	3090.3033	3131.979
O=C1CN2CCC12	O=C1CN2CC[C@@H]12	
InChI=1S/C5H7NO/c7-5-3-6-2-1-4(5)6/h4H,1-3H2	InChI=1S/C5H7NO/c7-5-3-6-2-1-4(5)6/h4H,1-3H2/t4-/m0/s1
