13
gdb 1074	7.48287	1.97168	1.57582	2.0241	55.16	-0.2147	0.0385	0.2532	734.8105	0.103636	-340.664407	-340.657874	-340.65693	-340.695448	23.088	
O	-0.0130556629	 1.4227374212	 0.0086340281	-0.421149
C	-0.0015963197	 0.0026787814	 0.0021824541	-0.18317
C	-1.4164017379	-0.4770137984	 0.012163258	 0.284234
C	-2.561714811	 0.2733658094	 0.0234031579	-0.166614
N	-3.5920971071	-0.6445207626	 0.0290881096	-0.235506
C	-3.0294871138	-1.8844646168	 0.0209121947	 0.008098
N	-1.7180736407	-1.8212602357	 0.0105996429	-0.313797
H	 0.898270713	 1.7271287912	 0.0019153252	 0.289841
H	 0.5136580016	-0.393466297	-0.8878136255	 0.103167
H	 0.5287697114	-0.4015190156	 0.8795704584	 0.103205
H	-2.7292468138	 1.3356963916	 0.0278881657	 0.140362
H	-4.5752908338	-0.4330272257	 0.0377567634	 0.264927
H	-3.6215767953	-2.7875602229	 0.0230349975	 0.126401
44.6521	202.3657	206.785	266.9653	458.7195	516.066	652.1447	687.3918	694.706	741.2353	816.7172	949.4158	982.1174	1050.324	1074.8588	1095.7413	1135.3842	1203.8625	1233.6468	1251.4895	1280.5191	1355.9009	1449.9324	1468.7109	1515.7152	1528.3045	1612.2289	2966.2248	2985.5926	3250.8354	3298.3511	3670.7949	3843.2245
OCC1=CNC=N1	OCc1c[nH]cn1	
InChI=1S/C4H6N2O/c7-2-4-1-5-3-6-4/h1,3,7H,2H2,(H,5,6)	InChI=1S/C4H6N2O/c7-2-4-1-5-3-6-4/h1,3,7H,2H2,(H,5,6)
