14
gdb 3394	4.82608	2.35674	2.17684	2.4413	57.93	-0.2426	-0.0246	0.2179	658.3311	0.113219	-324.546164	-324.539845	-324.538901	-324.576233	23.629	
C	-0.0522415422	 1.563474551	 0.0210433393	-0.429311
C	 0.0933956396	 0.058646331	-0.056034792	 0.025479
C	 0.5857187478	-0.7131072496	-1.2412378981	-0.18515
N	 1.338935792	-0.6934438133	 0.1051731433	-0.134421
C	 2.4394351866	 0.1175880322	-0.5297743467	-0.292805
C	 1.733989113	-0.0010297422	-1.8941936338	 0.408217
O	 2.06469381	 0.1831191763	-3.0298702573	-0.3044
H	 0.6628160157	 2.1069830055	-0.5985499026	 0.137255
H	-1.0553205234	 1.844620819	-0.3142322092	 0.13548
H	 0.0590529771	 1.9031344351	 1.0564332037	 0.133511
H	-0.7111229724	-0.4650272187	 0.4590705878	 0.111489
H	 0.0679021437	-1.5845186449	-1.6272137396	 0.120182
H	 2.6141017233	 1.1031576616	-0.092888164	 0.12964
H	 3.3725442892	-0.4524630731	-0.5259128908	 0.144833
120.3905	168.4047	309.8978	345.3022	448.3854	504.6224	591.6269	632.2495	704.3106	798.3708	855.5799	905.8788	957.7651	985.2839	1020.248	1053.9407	1088.5653	1117.7565	1130.6644	1185.0562	1243.8327	1254.4393	1315.2144	1409.0288	1427.4996	1463.2992	1494.5583	1500.0686	1889.9309	3043.3185	3069.3538	3104.7005	3113.6321	3124.9232	3138.7826	3180.6241
CC1C2N1CC2=O	C[C@H]1[C@@H]2N1CC2=O	
InChI=1S/C5H7NO/c1-3-5-4(7)2-6(3)5/h3,5H,2H2,1H3	InChI=1S/C5H7NO/c1-3-5-4(7)2-6(3)5/h3,5H,2H2,1H3/t3-,5-,6?/m0/s1
