17
gdb 1628	3.61348	1.99434	1.40803	3.0994	60.93	-0.2447	-0.0154	0.2293	877.0456	0.145215	-346.867382	-346.858616	-346.857672	-346.900579	30.661	
C	 0.037317706	 1.5928631054	 0.1327086581	-0.408696
C	-0.007037912	 0.0698736006	 0.0226361021	 0.135081
O	 0.7526599683	-0.5459657216	 1.0621629063	-0.42872
C	-1.434671866	-0.5104703725	 0.0013608651	-0.081889
C	-2.2204641798	-0.1509542684	-1.2727812421	-0.419095
C	-1.3467321569	-2.0241764187	 0.1127996879	 0.172421
O	-1.964761215	-2.692931943	 0.8989458687	-0.256437
H	 1.0764193527	 1.9252190767	 0.2018987153	 0.131199
H	-0.4217110721	 2.0796914242	-0.732505277	 0.122218
H	-0.4921375766	 1.9336203752	 1.0308843638	 0.112174
H	 0.5057404544	-0.2372721186	-0.8983664904	 0.092401
H	 0.3339109075	-0.3327437288	 1.9042036491	 0.282895
H	-1.9850590221	-0.1577217	 0.8833397643	 0.083691
H	-3.223850374	-0.5849977413	-1.2440823491	 0.136445
H	-2.3266443743	 0.9315798747	-1.3800505573	 0.12953
H	-1.7139259406	-0.5296825227	-2.1678260216	 0.124426
H	-0.6689209595	-2.4945864011	-0.6377407733	 0.072356
63.4578	88.9479	186.3875	206.5659	226.4396	279.4985	312.2112	325.6115	372.619	461.6229	505.1312	532.0245	835.7131	887.7564	930.0314	954.1412	984.7872	1065.0637	1086.6159	1117.7731	1159.9505	1176.4809	1254.1591	1298.2985	1336.0144	1378.1176	1401.0311	1408.9294	1418.8601	1429.5484	1491.2117	1491.9949	1497.2782	1504.645	1838.1525	2857.3858	3023.5047	3029.1757	3036.2898	3040.3261	3102.3575	3106.6836	3119.5396	3124.8541	3794.7389
CC(O)C(C)C=O	C[C@@H](O)[C@@H](C)C=O	
InChI=1S/C5H10O2/c1-4(3-6)5(2)7/h3-5,7H,1-2H3	InChI=1S/C5H10O2/c1-4(3-6)5(2)7/h3-5,7H,1-2H3/t4-,5+/m0/s1
