15
gdb 2836	5.07836	1.79142	1.47163	3.127	62.66	-0.2566	0.0126	0.2692	837.8304	0.124874	-304.683044	-304.675713	-304.674769	-304.714583	26.011	
C	 0.267634227	 1.5573196476	 0.080161515	-0.379601
C	-0.241881158	 0.1363674247	-0.1379280903	-0.127705
N	 0.4979436171	-0.4975819196	-1.2334110979	-0.071276
C	 1.7123311813	-1.2115637886	-0.8943584559	-0.236769
C	 0.4871045468	-1.9614278516	-1.3323364158	-0.145254
C	-0.2171452284	-2.7708336084	-0.3664531582	 0.283939
N	-0.805168442	-3.4244973903	 0.3855725191	-0.336199
H	 1.3204599098	 1.5566011883	 0.3807303522	 0.120619
H	 0.1767979917	 2.1459883878	-0.8367388004	 0.131976
H	-0.3078349723	 2.0492577722	 0.8695805844	 0.122635
H	-0.1707733098	-0.4420576679	 0.796987181	 0.110025
H	-1.298495021	 0.1507144571	-0.4259460574	 0.120227
H	 2.5442182072	-1.1132948563	-1.585716008	 0.134058
H	 1.9850857091	-1.3002847515	 0.1561321393	 0.13345
H	 0.4298746913	-2.3467054936	-2.346625157	 0.139874
88.5306	124.2836	200.0049	241.0487	268.0824	375.8713	420.7108	557.9872	639.9822	732.369	809.3175	812.4282	907.254	960.2017	1023.7653	1046.0361	1098.7811	1117.1062	1129.978	1141.2221	1200.007	1311.1463	1319.009	1367.0734	1389.8823	1413.9548	1488.5309	1490.6085	1502.4874	1517.2959	2349.3124	2981.2302	3042.1408	3068.2085	3098.8674	3112.6783	3123.9963	3149.1073	3192.9836
CCN1CC1C#N	CCN1C[C@H]1C#N	
InChI=1S/C5H8N2/c1-2-7-4-5(7)3-6/h5H,2,4H2,1H3	InChI=1S/C5H8N2/c1-2-7-4-5(7)3-6/h5H,2,4H2,1H3/t5-,7?/m1/s1
