13
gdb 1080	6.83236	2.87298	2.07586	4.057	59.93	-0.2157	0.0412	0.2569	601.861	0.105329	-303.497783	-303.49251	-303.491566	-303.526838	19.696	
C	-0.0054234969	 1.5814735092	-0.015951867	-0.170457
C	 1.5582242381	 1.4194054566	-0.1139884991	-0.376061
C	 1.3114687045	-0.0137714431	 0.342222097	 0.295104
C	 1.5503833052	-1.3131823484	 0.7124319658	-0.221863
N	 0.3373091944	-1.9074645043	 1.0061183797	-0.262416
C	-0.6090791145	-1.0030007529	 0.8215874181	-0.030285
N	-0.0399557785	 0.164157514	 0.4154494741	-0.000887
H	-0.3631931759	 2.2776211213	 0.7460626611	 0.134372
H	-0.5236222519	 1.7620839198	-0.9604810386	 0.134367
H	 1.9632560702	 1.5392683143	-1.1215040428	 0.13006
H	 2.1227483599	 2.0518610934	 0.5750809147	 0.13006
H	 2.4750599759	-1.8618102807	 0.79132096	 0.107061
H	-1.6672209404	-1.152626809	 0.966211337	 0.130946
126.5404	233.6298	448.8537	650.5224	663.5076	710.0285	781.1245	801.4317	817.7797	829.195	894.5603	985.2708	1056.9226	1084.385	1118.3718	1137.3968	1185.1425	1211.2614	1237.2074	1247.2326	1297.0268	1377.7489	1403.6393	1461.6341	1486.064	1516.967	1564.8905	3066.8159	3071.6286	3112.3737	3128.8997	3261.4305	3264.7005
C1CC2=CN=CN12	C1Cc2cncn12	
InChI=1S/C5H6N2/c1-2-7-4-6-3-5(1)7/h3-4H,1-2H2	InChI=1S/C5H6N2/c1-2-7-4-6-3-5(1)7/h3-4H,1-2H2
