12
gdb 984	3.87258	3.32076	1.79473	1.2175	51.73	-0.1747	0.0573	0.232	645.3143	0.090592	-360.533083	-360.526491	-360.525547	-360.563056	24.676	
O	 0.0896290533	 1.3319314875	 0.1518828527	-0.443964
C	 0.0547809737	-0.0156157411	 0.0057860903	 0.313688
C	 0.0152040249	-0.8058965439	-1.1166930769	 0.149858
O	-0.0467423565	-0.2785697832	-2.3922674007	-0.462851
C	-0.0271485581	-2.1642133918	-0.6798986329	-0.254566
C	-0.0051134383	-2.1477685879	 0.6933228495	-0.090249
N	 0.0361723555	-0.8272258816	 1.102913036	-0.293088
H	 0.0633839134	 1.6998131474	-0.739865415	 0.308946
H	 0.6959024404	-0.6171455572	-2.9030200954	 0.295745
H	-0.0719944113	-3.0406187058	-1.3078666879	 0.093645
H	-0.0186188714	-2.9477064517	 1.4138329797	 0.116118
H	 0.0503736245	-0.4966601707	 2.0512461005	 0.266717
200.8652	247.9402	263.9896	297.7159	357.8306	393.6645	477.6104	618.4511	629.9013	653.5632	682.1704	757.5281	793.5881	910.5853	1072.5491	1082.4643	1157.5611	1190.2599	1279.3056	1285.9467	1397.0225	1418.2414	1521.158	1566.6488	1684.2123	3248.304	3281.6217	3692.1574	3798.5547	3803.8966
OC1=C(O)C=CN1	Oc1c(O)cc[nH]1	
InChI=1S/C4H5NO2/c6-3-1-2-5-4(3)7/h1-2,5-7H	InChI=1S/C4H5NO2/c6-3-1-2-5-4(3)7/h1-2,5-7H
