17
gdb 2297	7.89088	1.3465	1.24656	1.3299	60.99	-0.2453	0.0755	0.3208	983.9394	0.147704	-346.819305	-346.8115	-346.810556	-346.852203	26.535	
C	-0.3961123495	 1.3670558488	 0.3296512243	-0.223401
O	-0.4299137673	-0.0312049848	 0.4857210946	-0.235674
C	-0.8593708288	-0.7055076677	-0.6745565751	-0.070153
C	-0.8455083472	-2.1942069531	-0.3794441044	 0.136543
C	-1.9836577492	-2.7635348151	 0.4932541941	-0.279986
C	-2.344198702	-3.5783742534	-0.7654512584	-0.061152
O	-1.2857973609	-2.9545619375	-1.5270499133	-0.295741
H	-0.0509703804	 1.7944901016	 1.2742756086	 0.127049
H	 0.2947033289	 1.6713252677	-0.4725088227	 0.1059
H	-1.3918638307	 1.776531005	 0.0964084727	 0.104105
H	-1.8765211919	-0.3912012123	-0.9651715856	 0.084118
H	-0.1947069264	-0.4957480018	-1.5299389472	 0.094399
H	 0.1624989398	-2.4902789677	-0.060793805	 0.08274
H	-1.6701404738	-3.3430852653	 1.3619372365	 0.113011
H	-2.7261934195	-2.02603868	 0.8033900231	 0.112816
H	-2.1992340476	-4.6626375751	-0.6824741907	 0.10229
H	-3.3302914136	-3.3875071593	-1.2053466014	 0.103134
61.4096	88.937	98.2824	179.2498	235.7293	336.9435	410.0927	463.8836	771.5385	804.584	884.4588	938.1939	944.9789	993.4597	1020.7836	1045.8593	1119.8358	1150.405	1164.5211	1173.1308	1193.3139	1212.6207	1226.0807	1251.4648	1256.5091	1279.7134	1349.8365	1379.8713	1424.31	1481.3361	1486.0701	1491.3258	1504.2754	1524.8026	1532.957	2951.5027	2972.2293	2983.3866	3014.7445	3015.4592	3024.8936	3055.7906	3083.5794	3113.2618	3138.9947
COCC1CCO1	COC[C@H]1CCO1	
InChI=1S/C5H10O2/c1-6-4-5-2-3-7-5/h5H,2-4H2,1H3	InChI=1S/C5H10O2/c1-6-4-5-2-3-7-5/h5H,2-4H2,1H3/t5-/m1/s1
