16
gdb 4074	6.34999	1.15659	1.06953	1.4796	69.54	-0.2436	0.001	0.2446	1089.3415	0.129789	-379.835895	-379.828284	-379.82734	-379.868131	28.714	
O	-0.2314312143	 1.3122059841	 0.4635006214	-0.394681
N	-0.0337552525	-0.076609858	 0.33837549	-0.231707
C	-1.0692357514	-0.6379435622	-0.1229997155	 0.420277
C	-2.4580107404	-0.1795396693	-0.5366944325	-0.402826
C	-2.7975591019	-1.6731249557	-0.7281981431	 0.351677
C	-4.0621566573	-2.354660656	-0.3866305521	-0.301131
N	-3.596566419	-2.2688745728	-1.7888475992	-0.356793
C	-1.3483866397	-2.1013496049	-0.4116733752	-0.375119
H	 0.6124737222	 1.6047904935	 0.8239551098	 0.306865
H	-3.019182172	 0.3657255983	 0.2281947171	 0.130508
H	-2.4637850592	 0.4136361274	-1.4587587025	 0.127804
H	-4.0471043147	-3.3557122201	 0.0366969656	 0.121756
H	-4.906024685	-1.7431680699	-0.0756673147	 0.113904
H	-4.1168003731	-1.5491561392	-2.2858038686	 0.231454
H	-0.8148776872	-2.4997764514	-1.2805796172	 0.132756
H	-1.2157668546	-2.7872172338	 0.4298690167	 0.125258
44.9654	179.9329	245.7397	298.6212	341.8083	348.0205	391.0603	462.8451	477.8207	603.9728	748.4519	794.7307	828.5997	884.9258	899.4006	951.8096	969.1548	982.9653	1003.8907	1058.7198	1082.0066	1124.5104	1158.5422	1185.3268	1207.8761	1234.6794	1264.7168	1287.3936	1400.2358	1413.9101	1444.9723	1465.4466	1515.4477	1790.5608	3038.405	3052.3486	3089.4561	3101.148	3101.4164	3186.0432	3490.5106	3818.3175
ON=C1CC2(CN2)C1	ON=C1C[C@]2(CN2)C1	
InChI=1S/C5H8N2O/c8-7-4-1-5(2-4)3-6-5/h6,8H,1-3H2	InChI=1S/C5H8N2O/c8-7-4-1-5(2-4)3-6-5/h6,8H,1-3H2/t5-
