14
gdb 1607	4.41507	2.20494	1.49827	3.6272	62.94	-0.2452	-0.0243	0.221	793.6405	0.111252	-324.565412	-324.557264	-324.55632	-324.597719	27.873	
C	-0.0726778903	 1.436704148	 0.0304416808	-0.347806
N	-0.0105847081	-0.0138996977	 0.0125415468	-0.094957
C	 0.0120708117	-0.6781176151	 1.2999204407	-0.339722
C	 0.0211164764	-0.6575090322	-1.1950623242	 0.314414
O	 0.0005434773	-0.0821374342	-2.2715475108	-0.369717
C	 0.0829810592	-2.1147827092	-1.1481498769	 0.19839
C	 0.134339288	-3.3138921629	-1.2291301799	-0.405221
H	 0.7970086151	 1.8518838089	 0.5547810251	 0.125294
H	-0.0838705321	 1.7940993497	-0.9978610015	 0.173519
H	-0.9787720525	 1.7759988858	 0.5476964122	 0.125284
H	-0.889527927	-0.4338988366	 1.876329293	 0.127788
H	 0.0588485768	-1.7576487065	 1.1636329852	 0.156811
H	 0.8843937756	-0.3580602185	 1.8841856343	 0.1278
H	 0.17978406	-4.3728788294	-1.3057299547	 0.208127
93.5872	115.5003	154.4294	174.1768	222.9281	302.833	344.1225	390.9598	534.1317	581.5595	647.9513	679.4699	736.3696	752.4252	981.6628	1082.379	1130.1225	1164.1042	1180.5232	1291.3599	1422.9402	1431.4746	1467.4213	1481.7737	1500.0659	1500.1078	1542.2001	1733.6455	2220.2874	3009.4941	3018.3739	3055.9343	3064.3945	3159.1302	3170.0619	3496.0749
CN(C)C(=O)C#C	CN(C)C(=O)C#C	
InChI=1S/C5H7NO/c1-4-5(7)6(2)3/h1H,2-3H3	InChI=1S/C5H7NO/c1-4-5(7)6(2)3/h1H,2-3H3
