13
gdb 2817	4.42509	1.94373	1.4814	2.9151	61.56	-0.2477	-0.0244	0.2234	795.4648	0.099849	-307.280331	-307.273331	-307.272387	-307.311419	25.252	
O	 0.0062707857	-0.0340433637	-0.3778924279	-0.264529
C	 0.0457496487	 1.0984904938	 0.0339344503	 0.164531
C	 1.2781649159	 1.9234102241	 0.0712124973	-0.104561
C	 1.1640985056	 3.4122181768	-0.1859203625	-0.296001
C	 1.4806363734	 2.9436935434	 1.2070128241	-0.186036
C	 0.5226326377	 3.0843269108	 2.2664892083	 0.323503
C	-0.2597805433	 3.2185299824	 3.1697156311	-0.451337
H	-0.86461262	 1.61224556	 0.4135679688	 0.085027
H	 2.1680532329	 1.4124325805	-0.2782882795	 0.11678
H	 1.9522278629	 3.8807768987	-0.7630340219	 0.137076
H	 0.1703884334	 3.8115705182	-0.3564557918	 0.140101
H	 2.5160767521	 3.0402655833	 1.5199761409	 0.130828
H	-0.9535306949	 3.3308484918	 3.9658225728	 0.204618
92.2805	159.7326	192.2842	299.1761	317.8497	461.3181	520.5418	578.2771	607.9659	660.4888	768.3807	829.3943	868.2405	926.8297	967.0171	1048.7301	1080.7633	1121.6178	1125.1659	1183.8273	1206.3564	1337.6997	1378.9139	1439.7645	1479.8021	1821.3304	2239.2938	2895.0648	3143.1231	3151.436	3186.704	3235.7886	3503.7004
O=CC1CC1C#C	O=C[C@H]1C[C@H]1C#C	
InChI=1S/C6H6O/c1-2-5-3-6(5)4-7/h1,4-6H,3H2	InChI=1S/C6H6O/c1-2-5-3-6(5)4-7/h1,4-6H,3H2/t5-,6-/m1/s1
