16
gdb 2996	6.11008	1.72217	1.43157	2.9458	62.19	-0.2451	0.0086	0.2537	869.4085	0.135759	-325.781464	-325.773682	-325.772737	-325.814425	26.875	
C	-0.0058358506	 1.4571384292	 0.2374355309	-0.370306
C	-0.0761666142	-0.0252245628	-0.1208904046	-0.283558
C	-1.495730334	-0.5729696302	-0.0961048047	 0.373571
O	-2.466424544	 0.0847424115	 0.2055083039	-0.33104
N	-1.6043763712	-1.8951732894	-0.5416583621	-0.077045
C	-1.0795887632	-3.0521330039	 0.1642469381	-0.234332
C	-2.5552193718	-2.821243368	 0.0244001197	-0.215348
H	 1.029030278	 1.8101420347	 0.2133543138	 0.107338
H	-0.593045405	 2.0553118862	-0.4636936142	 0.133049
H	-0.4115450686	 1.6378090931	 1.2359095512	 0.13041
H	 0.3398882385	-0.2182577296	-1.1169437438	 0.130652
H	 0.5343577879	-0.6243629133	 0.5677621082	 0.117275
H	-0.5782797624	-3.7991074948	-0.4453083764	 0.12728
H	-0.6407438323	-2.8931590238	 1.1468952978	 0.127526
H	-3.1050312138	-2.4862454971	 0.8997254288	 0.137598
H	-3.1277443732	-3.4090142419	-0.6871248568	 0.126931
29.2682	95.5288	186.0202	190.9197	232.1654	293.71	444.1698	575.6143	592.8076	739.5113	805.8221	822.6827	910.5588	969.4437	1007.2966	1040.8663	1086.8665	1098.7266	1127.0019	1131.7324	1146.9142	1174.4833	1177.1984	1279.2413	1343.4301	1402.0488	1415.4261	1458.5814	1493.6829	1496.7141	1499.582	1523.9	1791.4985	3027.6606	3051.7673	3062.5997	3102.5946	3116.8458	3122.7187	3129.61	3186.9992	3207.2088
CCC(=O)N1CC1	CCC(=O)N1CC1	
InChI=1S/C5H9NO/c1-2-5(7)6-3-4-6/h2-4H2,1H3	InChI=1S/C5H9NO/c1-2-5(7)6-3-4-6/h2-4H2,1H3
