16
gdb 2972	4.25866	1.95067	1.43591	4.0273	64.7	-0.3001	0.0365	0.3366	850.947	0.136666	-288.648476	-288.64097	-288.640026	-288.680157	27.095	
C	 0.1062639174	 1.4366096812	 0.1069102555	-0.391488
C	-0.0801411643	-0.087485473	-0.0292576521	-0.158778
C	-1.509070829	-0.4327711867	-0.0352453145	 0.274071
N	-2.6344173595	-0.6961322545	-0.0498033193	-0.325005
C	 0.6080901677	-0.6448221799	-1.2689193433	 0.045516
C	 2.0750021174	-0.9866718349	-1.2099648335	-0.280055
C	 1.0442706346	-2.0840486112	-1.3193501333	-0.26695
H	 1.1731727964	 1.6704861522	 0.1487765356	 0.128705
H	-0.328027029	 1.9565903228	-0.7515497089	 0.136805
H	-0.3736427129	 1.8144770074	 1.0130187708	 0.135451
H	 0.3579925798	-0.5737301533	 0.8525804957	 0.120739
H	 0.243891949	-0.2147853002	-2.1976470802	 0.100708
H	 2.6887180737	-0.7627684176	-2.0749816254	 0.120635
H	 2.5872244703	-0.8668291511	-0.2605073462	 0.115203
H	 0.8641935289	-2.6993431213	-0.4440119164	 0.121272
H	 0.9491983795	-2.6142738899	-2.2597518843	 0.123171
77.6491	146.6464	210.122	228.4579	243.3642	352.7721	417.34	528.2054	578.7508	752.5927	810.1593	832.8147	864.9371	942.8733	954.5979	992.7366	1060.2459	1079.78	1087.5763	1110.5521	1137.7695	1195.5364	1205.8592	1227.1302	1292.6237	1323.7111	1403.1679	1416.8236	1471.6823	1492.4387	1498.1936	1507.2926	2355.6859	3024.0685	3048.9262	3125.5013	3130.269	3132.1598	3138.5331	3150.158	3212.3523	3227.4957
CC(C#N)C1CC1	C[C@@H](C#N)C1CC1	
InChI=1S/C6H9N/c1-5(4-7)6-2-3-6/h5-6H,2-3H2,1H3	InChI=1S/C6H9N/c1-5(4-7)6-2-3-6/h5-6H,2-3H2,1H3/t5-/m0/s1
