12
gdb 424	5.12788	3.90547	2.45414	0.9705	46.89	-0.2575	-0.0323	0.2252	525.6219	0.094977	-306.365166	-306.359174	-306.35823	-306.394728	20.774	
C	 0.1088080546	 1.5496737383	-0.0575933346	-0.40102
C	-0.0337123341	 0.0449018318	 0.0775631836	 0.038588
O	 0.7821365658	-0.7109182938	-0.8566843081	-0.289986
C	 1.4840428826	-1.4337549704	 0.1734524996	-0.187433
C	 0.7064785809	-0.646259737	 1.2355009838	 0.329887
O	 0.6944705884	-0.5756360522	 2.4254419953	-0.267048
H	 1.1553115092	 1.8541109383	 0.0317633344	 0.12835
H	-0.266293532	 1.8784402976	-1.0309950911	 0.137032
H	-0.4707491796	 2.0489367205	 0.7249795409	 0.136937
H	-1.0890652803	-0.2576959055	 0.0121147743	 0.107888
H	 1.2811253904	-2.512708414	 0.1594682112	 0.132415
H	 2.5686521841	-1.2688968637	 0.1542357607	 0.13439
116.0002	194.1257	203.6755	370.5051	452.6992	542.4706	690.5351	777.0811	868.0126	910.6173	1010.8355	1033.2798	1081.6255	1099.449	1132.8855	1142.8267	1262.8288	1304.0506	1346.6415	1399.0897	1480.6918	1481.4546	1494.5228	1924.8302	3003.4054	3017.2462	3042.9726	3062.5002	3120.3677	3123.0566
CC1OCC1=O	C[C@H]1OCC1=O	
InChI=1S/C4H6O2/c1-3-4(5)2-6-3/h3H,2H2,1H3	InChI=1S/C4H6O2/c1-3-4(5)2-6-3/h3H,2H2,1H3/t3-/m1/s1
