12
gdb 2749	4.64099	2.4832	1.65164	5.6401	53.59	-0.2588	-0.0391	0.2196	700.9928	0.090065	-360.552974	-360.546551	-360.545606	-360.583651	22.012	
O	-0.1500721511	-0.0219588062	 0.0012808604	-0.265392
C	-0.0417518043	 1.1753593497	 0.0100937471	 0.154171
N	 1.1549147044	 1.868918611	 0.0028270962	-0.12324
C	 1.4300056393	 3.3208864742	 0.0111261205	-0.176537
C	 2.9454719334	 2.9811937393	-0.0085081055	-0.372753
C	 2.5237293103	 1.4994602772	-0.0153695363	 0.436451
O	 3.0701251785	 0.4415754518	-0.0299154611	-0.30265
H	-0.9044159231	 1.873054994	 0.0245417015	 0.086365
H	 1.0570613357	 3.8396086343	-0.8753185029	 0.132829
H	 1.0770764984	 3.8255783534	 0.9137165776	 0.132828
H	 3.4875325329	 3.2907074989	-0.9034165089	 0.148968
H	 3.5075517156	 3.2768005924	 0.8787161514	 0.148959
106.8059	175.26	185.699	217.3699	470.018	509.7788	540.6336	755.3026	806.7121	820.6588	952.5585	1030.2196	1052.0333	1053.5675	1137.3342	1154.3205	1197.6961	1229.4009	1283.8798	1361.7809	1434.4065	1457.4436	1521.5041	1811.3665	1922.2261	2922.6719	3063.4419	3093.7556	3114.717	3151.4273
O=CN1CCC1=O	O=CN1CCC1=O	
InChI=1S/C4H5NO2/c6-3-5-2-1-4(5)7/h3H,1-2H2	InChI=1S/C4H5NO2/c6-3-5-2-1-4(5)7/h3H,1-2H2
