14
gdb 4063	6.93153	1.03968	0.96241	3.5412	66.86	-0.2618	-0.0144	0.2473	1137.5486	0.106582	-378.681756	-378.674109	-378.673165	-378.714294	27.515	
O	-0.18645679	 1.3134943532	 0.2008923171	-0.389668
N	-0.0120023977	-0.0774377152	 0.1419437477	-0.217797
C	-1.1142879531	-0.6636993324	-0.0593072335	 0.418243
C	-2.5452667245	-0.2319011816	-0.3043679822	-0.327273
C	-2.8456352864	-1.7149380083	-0.7327620497	-0.144161
C	-1.4121252361	-2.1370699716	-0.2347221028	-0.322288
C	-3.9789088762	-2.3676316333	-0.1026377944	 0.270348
N	-4.8756220161	-2.8834285668	 0.4139219907	-0.320696
H	 0.7128352233	 1.627855997	 0.34489289	 0.312191
H	-3.0700850622	 0.0725913993	 0.6053352141	 0.152109
H	-2.6985842868	 0.5311571092	-1.0699946744	 0.144573
H	-2.9352436255	-1.8076063454	-1.8171543677	 0.135113
H	-0.8009033583	-2.6860641597	-0.9535074362	 0.140231
H	-1.4384070703	-2.6925948644	 0.7067604213	 0.149076
45.7254	143.9276	213.0597	242.7743	279.2981	364.7602	460.2154	490.8372	539.9919	572.8148	663.2956	770.6993	802.4402	914.7161	949.447	980.2892	1034.0771	1038.616	1080.9613	1175.0103	1182.2177	1214.8157	1244.8036	1255.4926	1343.8848	1409.8021	1452.3986	1469.9987	1791.3261	2356.5167	3067.8973	3072.2525	3090.3984	3125.8091	3127.2047	3816.3252
ON=C1CC(C1)C#N	ON=C1C[C@@H](C1)C#N	
InChI=1S/C5H6N2O/c6-3-4-1-5(2-4)7-8/h4,8H,1-2H2	InChI=1S/C5H6N2O/c6-3-4-1-5(2-4)7-8/h4,8H,1-2H2/t4-
