10
gdb 330	5.6601	2.84529	2.01169	2.5088	48.67	-0.2798	-0.003	0.2768	583.2106	0.072434	-264.171923	-264.165508	-264.164564	-264.201717	22.216	
N	-0.0282160856	 1.492026266	 0.0669800367	-0.485853
C	-0.026539461	 0.0276461703	-0.0221209527	-0.282741
C	-1.3836860373	-0.504755436	 0.1136481249	 0.364341
C	-2.4972258287	-0.9382357942	 0.2182606306	-0.431415
C	 0.6010664445	-0.4891560655	-1.2669616484	 0.271812
N	 1.1236757436	-0.8331976265	-2.2386405308	-0.318357
H	 0.9200582046	 1.837514495	-0.0530378414	 0.249343
H	-0.5836148624	 1.8762892401	-0.6921774631	 0.251272
H	 0.5797446821	-0.3476247295	 0.8135306394	 0.165862
H	-3.4826572199	-1.3235989696	 0.3135071249	 0.215736
134.7231	200.7262	223.8358	280.2463	363.7936	497.6346	577.3739	610.3561	651.6324	676.0209	824.044	897.8807	978.0527	1119.4747	1195.5866	1315.3487	1389.4407	1656.4609	2254.1367	2350.3728	3024.245	3492.5124	3503.4124	3577.673
NC(C#C)C#N	N[C@@H](C#C)C#N	
InChI=1S/C4H4N2/c1-2-4(6)3-5/h1,4H,6H2	InChI=1S/C4H4N2/c1-2-4(6)3-5/h1,4H,6H2/t4-/m0/s1
