11
gdb 4246	4.18782	2.05836	1.38005	1.9296	55.63	-0.2755	-0.0582	0.2173	793.8273	0.074847	-430.787166	-430.781112	-430.780168	-430.817736	22.081	
N	-0.0899978843	 1.3124603229	 0.1397305175	-0.527224
C	 0.0276882466	 0.0618335891	-0.0259661296	 0.428424
N	-1.1339175734	-0.7235828268	-0.0878757751	-0.39148
C	-1.1907447629	-2.0753047461	-0.2606851257	 0.505081
O	-2.1759777544	-2.7457992702	-0.3137953116	-0.346774
O	 0.064677594	-2.6720104639	-0.3807553839	-0.206631
C	 1.1738180025	-1.8950243391	-0.3181777858	 0.141946
N	 1.2365633594	-0.63795685	-0.1577700192	-0.298656
H	 0.836484058	 1.7356309816	 0.1627780763	 0.241536
H	-2.0187232413	-0.2439524567	 0.0043435807	 0.289967
H	 2.0684730657	-2.5010476208	-0.4271183537	 0.163812
110.2927	147.6572	390.2787	409.7184	491.542	571.2976	598.8203	661.0993	755.0155	763.062	785.6928	883.5351	903.2754	955.7238	988.7481	1089.622	1157.0431	1269.6477	1387.2568	1411.4755	1428.7886	1703.368	1750.225	1909.2919	3195.8604	3517.1606	3618.6209
N=C1NC(=O)OC=N1	[NH]C1=N[CH]OC(=O)N1	
InChI=1S/C3H3N3O2/c4-2-5-1-8-3(7)6-2/h1H,(H2,4,6,7)	InChI=1S/C3H3N3O2/c4-2-5-1-8-3(7)6-2/h1H,(H2,4,6,7)
