16
gdb 1322	5.05633	1.84877	1.64868	1.8398	67.94	-0.2408	0.0386	0.2793	811.4787	0.134725	-288.58902	-288.581169	-288.580225	-288.620346	29.281	
C	-0.0959452642	 1.53831819	-0.0525362992	-0.436711
C	-0.0274064801	 0.0284298636	 0.0191375661	 0.332234
C	-1.2346786751	-0.6987847751	-0.5374807432	-0.456089
N	 1.3059780421	-0.5375633746	-0.227013124	-0.35235
C	 0.723988788	-0.6356816195	 1.1392179512	-0.297855
C	 1.3696885694	 0.0882596712	 2.1987449835	 0.384073
C	 1.8842053145	 0.6805327084	 3.1102153695	-0.440736
H	 0.8079598057	 1.9872148915	 0.3616098915	 0.1413
H	-0.1975451256	 1.8634700249	-1.0938075129	 0.116179
H	-0.9598649044	 1.9143141526	 0.5060853472	 0.115979
H	-1.353762608	-0.4822501678	-1.6055737462	 0.124777
H	-1.1403431889	-1.7833846374	-0.4197875512	 0.112888
H	-2.1538266256	-0.3834549295	-0.0321721515	 0.12821
H	 1.2282211407	-1.4452964137	-0.6815015326	 0.228727
H	 0.3431454087	-1.6104861336	 1.4389184962	 0.103556
H	 2.3474827328	 1.2060776091	 3.9080127055	 0.195816
138.054	149.5629	185.9631	228.4149	322.3613	346.3348	383.2944	401.3033	540.5472	558.7327	604.4116	655.4505	708.8506	806.3324	891.4552	953.8195	964.397	980.8611	1030.5242	1078.5835	1112.9333	1154.5014	1210.318	1303.2601	1351.7587	1413.104	1423.7503	1434.1069	1476.1964	1487.6123	1496.3856	1508.64	2237.9376	3024.1933	3036.7384	3089.4887	3096.8416	3099.6697	3119.2896	3142.1566	3485.0256	3504.4072
CC1(C)NC1C#C	CC1(C)N[C@H]1C#C	
InChI=1S/C6H9N/c1-4-5-6(2,3)7-5/h1,5,7H,2-3H3	InChI=1S/C6H9N/c1-4-5-6(2,3)7-5/h1,5,7H,2-3H3/t5-/m0/s1
