17
gdb 1777	3.87991	2.13336	1.7284	2.7741	65.58	-0.2468	-0.0195	0.2272	798.3756	0.146188	-309.728493	-309.720367	-309.719423	-309.760551	28.993	
C	-0.1564952551	 1.3681596829	-0.1368533789	-0.418148
C	 0.133937764	-0.1047996301	 0.0376004528	-0.00302
C	 1.5065200113	-0.6677829328	-0.1057543778	-0.311964
C	 0.8560774936	-0.6558281089	 1.2774243156	 0.230023
C	 1.3865676212	 0.2507708744	 2.3696696418	-0.488179
C	 0.3466398599	-1.9764659712	 1.7384333159	 0.099662
O	-0.075560689	-2.8478318649	 1.0139620218	-0.275111
H	 0.6840100156	 1.9969764254	 0.1692199602	 0.11761
H	-0.3586891536	 1.5866667866	-1.1911749376	 0.127171
H	-1.0358367989	 1.6767784538	 0.438696228	 0.122962
H	-0.658464941	-0.7674455406	-0.2999389609	 0.110929
H	 1.6185096631	-1.6384338053	-0.5758263041	 0.134027
H	 2.3322492375	 0.0221148786	-0.2501136497	 0.112166
H	 1.7820098445	 1.1851126326	 1.9663797061	 0.124526
H	 0.6058422143	 0.5076090965	 3.0948233275	 0.123884
H	 2.2010784053	-0.2358005947	 2.9182169017	 0.125072
H	 0.3748996076	-2.1227800924	 2.8429042278	 0.068388
104.2803	133.44	167.9185	201.0707	224.9144	275.5021	344.1606	412.1717	438.8832	610.7511	714.045	745.2236	885.2121	901.087	937.726	972.7792	1008.4049	1059.748	1075.4749	1115.6555	1134.7418	1137.605	1199.8293	1272.2562	1309.9573	1399.73	1417.847	1425.5454	1435.239	1473.9477	1485.9828	1492.8579	1499.0937	1508.571	1804.1701	2864.2812	3030.0725	3034.6602	3085.5415	3092.4804	3108.0922	3125.447	3128.5805	3151.4312	3222.804
CC1CC1(C)C=O	C[C@H]1C[C@]1(C)C=O	
InChI=1S/C6H10O/c1-5-3-6(5,2)4-7/h4-5H,3H2,1-2H3	InChI=1S/C6H10O/c1-5-3-6(5,2)4-7/h4-5H,3H2,1-2H3/t5-,6+/m0/s1
