12
gdb 2521	3.17993	2.29656	1.40907	1.2156	51.11	-0.2812	-0.0587	0.2226	794.6414	0.088166	-360.523204	-360.515602	-360.514657	-360.555659	25.15	
O	 0.0649497679	 1.3567154013	-0.1455794217	-0.414914
C	-0.0890257104	-0.0398467817	-0.2111048177	-0.063334
C	-1.5538742579	-0.4749433993	 0.0435050606	-0.249566
C	-1.7721364657	-1.9796709545	-0.1808219422	 0.158555
O	-0.9853670995	-2.6663334111	-0.7711770425	-0.222058
C	-2.0032224768	-0.0806030088	 1.3772703035	 0.244437
N	-2.3204849016	 0.2286409132	 2.4450682097	-0.305973
H	-0.0248719417	 1.6330989008	 0.7731994572	 0.300846
H	 0.1812922303	-0.3494405146	-1.221999545	 0.144524
H	 0.5700000272	-0.5716560703	 0.4876164559	 0.121573
H	-2.1951554848	 0.0443601621	-0.684942609	 0.166499
H	-2.722693827	-2.3819844669	 0.2260016511	 0.119411
66.7971	96.001	163.6669	192.6035	248.4468	363.6546	376.1451	511.9599	564.6018	635.6846	769.3105	881.5073	1034.1943	1051.9209	1079.1386	1106.4153	1195.6968	1240.4546	1310.3159	1394.2835	1408.3467	1419.2358	1500.8152	1837.5622	2353.8337	2925.6434	3010.7876	3028.5908	3126.0197	3806.5575
OCC(C=O)C#N	OC[C@@H](C=O)C#N	
InChI=1S/C4H5NO2/c5-1-4(2-6)3-7/h2,4,7H,3H2	InChI=1S/C4H5NO2/c5-1-4(2-6)3-7/h2,4,7H,3H2/t4-/m1/s1
