8
gdb 4222	6.53696	2.91337	2.01523	2.2694	41.93	-0.278	-0.1108	0.1672	538.6213	0.043872	-395.551843	-395.547064	-395.546119	-395.580601	16.536	
F	-0.0022409078	 0.082819031	 0.0040035791	-0.024476
C	-0.0421113519	 1.3880493021	 0.010282369	 0.421286
N	-1.2309668053	 1.952266599	 0.0294124322	-0.269719
C	-1.1469516703	 3.2788663021	 0.0354927793	 0.130078
N	-0.0126725975	 3.9865511342	 0.0241218384	-0.169317
N	 1.1277690423	 3.3204365856	 0.0055288237	-0.029663
N	 1.1393261312	 1.9992077092	-0.001661991	-0.22417
H	-2.0726207708	 3.8468485768	 0.0507368793	 0.165981
168.6057	344.5482	467.0833	581.0144	597.2613	701.4604	856.2157	917.9081	987.2601	1010.2044	1036.1573	1159.1839	1286.293	1370.2468	1460.6636	1546.716	1575.9416	3190.9787
FC1=NC=NN=N1	Fc1ncnnn1	
InChI=1S/C2HFN4/c3-2-4-1-5-7-6-2/h1H	InChI=1S/C2HFN4/c3-2-4-1-5-7-6-2/h1H
