10
gdb 1589	5.41748	1.98109	1.45062	3.4036	44.64	-0.2482	-0.1217	0.1265	744.7672	0.064746	-396.486691	-396.479503	-396.478559	-396.518789	23.759	
N	-0.0257409779	 1.3337026509	 0.008290721	-0.51683
C	 0.0746829843	-0.0107405042	 0.0006748413	 0.31969
O	 1.1048661899	-0.6607762213	-0.0120817061	-0.339052
C	-1.2949955097	-0.7101691057	 0.0101457783	 0.219429
O	-2.3307182368	-0.0941457028	 0.0231377079	-0.266198
C	-1.2658022187	-2.2562719208	 0.0021736668	 0.090494
O	-2.2908031815	-2.8823409227	 0.0087831479	-0.21027
H	 0.8052391345	 1.9011759919	 0.0036673022	 0.276637
H	-0.9388221347	 1.7589460089	 0.0193101917	 0.285328
H	-0.2649611694	-2.7189140441	-0.009602151	 0.140772
58.4339	67.3722	203.5657	327.4235	329.1215	380.2535	406.9571	513.3727	630.3859	631.747	736.91	843.6586	1015.7146	1051.1088	1100.4185	1365.6401	1395.7248	1596.0519	1790.8376	1806.8752	1831.3409	3007.7231	3595.569	3733.8133
NC(=O)C(=O)C=O	NC(=O)C(=O)C=O	
InChI=1S/C3H3NO3/c4-3(7)2(6)1-5/h1H,(H2,4,7)	InChI=1S/C3H3NO3/c4-3(7)2(6)1-5/h1H,(H2,4,7)
