16
gdb 4910	6.41924	1.24062	1.05317	1.8119	66.51	-0.1979	0.0571	0.255	1094.4759	0.131711	-379.973818	-379.966032	-379.965088	-380.006081	28.954	
C	 0.3794308469	 0.9944178496	 0.7258081147	-0.383358
C	-0.3411915663	 0.4062450047	-0.4895695231	-0.278007
C	 0.5744762973	-0.195132876	-1.5096941805	 0.288156
C	 1.9374833379	-0.2870889976	-1.5019451493	-0.193552
N	 2.2764977896	-0.9356525199	-2.6896047462	-0.305463
C	 1.1094915743	-1.1888811046	-3.3272345134	 0.44001
O	 1.1197460587	-1.8155396587	-4.5170628981	-0.426137
N	 0.0631458087	-0.7699682677	-2.6709862879	-0.416802
H	 0.9590108747	 0.2286288786	 1.2521648966	 0.116505
H	 1.0692669164	 1.7919857479	 0.4302101821	 0.116507
H	-0.3364447618	 1.4181118421	 1.4357269068	 0.111591
H	-1.0577946395	-0.3589196007	-0.163373483	 0.11218
H	-0.9485039386	 1.1821413452	-0.9738876729	 0.112184
H	 2.6889503028	 0.0293611077	-0.7997905763	 0.123957
H	 3.1958751515	-1.1737055594	-3.0185528627	 0.269001
H	 0.1955722474	-1.8916688911	-4.7855111768	 0.313227
54.4515	184.3203	188.5582	265.0382	322.0741	352.19	409.074	462.1488	489.4845	632.7939	649.3169	681.5744	734.9533	748.0079	796.9668	960.6655	1020.4434	1036.346	1073.1594	1104.4958	1111.1987	1192.45	1250.8326	1272.4753	1279.3901	1367.2775	1391.9677	1409.276	1482.3952	1497.3842	1510.7281	1568.7436	1613.9754	1627.0479	3018.3962	3034.4723	3039.9127	3099.7612	3109.4534	3284.9801	3680.3261	3805.9341
CCC1=CNC(O)=N1	CCc1c[nH]c(O)n1	
InChI=1S/C5H8N2O/c1-2-4-3-6-5(8)7-4/h3H,2H2,1H3,(H2,6,7,8)	InChI=1S/C5H8N2O/c1-2-4-3-6-5(8)7-4/h3H,2H2,1H3,(H2,6,7,8)
