14
gdb 2145	4.0004	3.23797	1.8306	4.0357	60.21	-0.2368	-0.0264	0.2104	673.5102	0.114653	-324.624537	-324.618041	-324.617097	-324.654915	23.354	
C	-0.0423266628	 1.407508992	 0.0091687142	-0.341767
N	-0.0194055399	-0.0330802584	 0.000220222	-0.082747
C	-1.1976380752	-0.8650094076	 0.0036394613	-0.216167
C	-0.62451806	-2.2580384824	-0.0080552701	-0.081509
C	 0.7071590826	-2.2019419604	-0.0166112211	-0.176686
C	 1.1473689997	-0.774792089	-0.0122217241	 0.400655
O	 2.2768952755	-0.326393824	-0.0166010341	-0.400527
H	 0.9958323423	 1.7460662548	 0.002982087	 0.166503
H	-0.5552880713	 1.809590712	-0.8739214324	 0.120396
H	-0.5411373649	 1.7989118356	 0.9050900148	 0.120407
H	-1.8237711834	-0.6895617471	 0.8925957934	 0.123354
H	-1.8358864774	-0.6796319252	-0.8746129889	 0.123329
H	-1.250280789	-3.1406127869	-0.0086095406	 0.12002
H	 1.4161719138	-3.0170103536	-0.0256957415	 0.12474
123.1313	160.5564	208.2503	298.3882	375.4957	482.9883	660.8891	664.8054	717.8995	818.7348	838.6414	948.3127	968.2473	1010.341	1022.2178	1102.0203	1145.3963	1148.7583	1198.3198	1271.3021	1309.5506	1355.9033	1419.4193	1446.964	1491.2919	1493.5784	1526.8454	1656.5124	1803.5876	2982.9715	3001.5033	3009.1339	3055.0652	3135.8285	3221.4459	3252.6887
CN1CC=CC1=O	CN1CC=CC1=O	
InChI=1S/C5H7NO/c1-6-4-2-3-5(6)7/h2-3H,4H2,1H3	InChI=1S/C5H7NO/c1-6-4-2-3-5(6)7/h2-3H,4H2,1H3
