13
gdb 714	6.1754	5.44278	4.33078	1.7558	52.12	-0.2359	0.0934	0.3294	400.0483	0.110586	-249.280474	-249.276201	-249.275257	-249.307696	17.203	
C	-0.0143715424	 1.4894839147	-0.1331515148	-0.235852
C	 1.495992376	 1.4055466708	 0.0780267939	-0.026264
C	 1.3833221535	 0.1243004954	 0.8129611844	-0.042649
C	-0.0138558012	-0.0472609483	 0.094144653	-0.079577
C	 0.8167176944	-0.5503364656	-1.0968035505	-0.139952
N	 2.0282874214	 0.1315380301	-0.5300323478	-0.145204
H	-0.4879974377	 2.0242230851	 0.6942282661	 0.106432
H	-0.4026806575	 1.8613715783	-1.0878741646	 0.094194
H	 2.2147660253	 2.2053083679	 0.1970618875	 0.097471
H	 1.8396136116	-0.2668285554	 1.7124727357	 0.095637
H	-0.9003722253	-0.5621555682	 0.4589915383	 0.073365
H	 0.9956653854	-1.6284858249	-1.0824738511	 0.107725
H	 0.5252831265	-0.23389779	-2.1059033602	 0.094674
435.0945	440.8358	713.5919	737.8883	782.5204	814.3709	848.1716	914.8196	941.7814	962.6436	980.1401	996.1	999.3526	1034.6914	1094.0215	1124.9662	1152.3894	1165.5297	1193.9725	1212.2406	1242.5282	1281.6016	1300.5168	1341.767	1494.0126	1514.9008	3028.3146	3041.0869	3100.353	3104.593	3134.9435	3198.8264	3213.1711
C1C2C3C1CN23	C1[C@H]2[C@H]3[C@@H]1CN23	
InChI=1S/C5H7N/c1-3-2-6-4(1)5(3)6/h3-5H,1-2H2	InChI=1S/C5H7N/c1-3-2-6-4(1)5(3)6/h3-5H,1-2H2/t3-,4-,5+,6?/m0/s1
