14
gdb 3669	7.58248	1.96879	1.59392	3.0064	60.27	-0.2475	0.0008	0.2483	773.7674	0.113095	-324.592116	-324.585175	-324.584231	-324.623144	24.421	
C	 0.0475070109	 1.5010504244	-0.0176587923	-0.490538
C	-0.0879355705	 0.020496869	 0.0360563947	 0.444435
C	-1.1179309197	-0.8368211817	-0.191455537	-0.414306
C	-0.5564504473	-2.1274427978	 0.0398055136	 0.395424
C	-1.2175871001	-3.4647809709	-0.0582233198	-0.493798
N	 0.7086380795	-2.0417172279	 0.3781629299	-0.202747
O	 1.010261828	-0.678123456	 0.3768789608	-0.211825
H	 0.8099417651	 1.7986165429	-0.7450195813	 0.150597
H	-0.9021811113	 1.9569656276	-0.3034535736	 0.139962
H	 0.34811691	 1.9026908834	 0.9555925571	 0.150589
H	-2.1269776388	-0.5921645026	-0.4802172493	 0.110429
H	-1.6031270574	-3.6383876092	-1.0682750842	 0.136122
H	-0.5035084895	-4.2541538586	 0.1836969645	 0.149535
H	-2.064707979	-3.5348565826	 0.6320422968	 0.136122
88.2627	130.8415	179.9974	259.6542	343.5777	393.1063	589.533	641.8616	677.7806	740.5707	807.5588	922.8267	983.696	1012.6546	1032.6768	1047.2009	1065.3718	1066.6964	1159.8066	1293.4764	1404.3054	1411.9931	1447.5243	1473.4021	1475.6154	1482.4351	1493.5636	1537.7927	1651.5073	3041.5002	3042.7523	3097.0175	3098.9902	3138.1655	3139.1713	3270.1959
CC1=CC(C)=NO1	Cc1cc(C)no1	
InChI=1S/C5H7NO/c1-4-3-5(2)7-6-4/h3H,1-2H3	InChI=1S/C5H7NO/c1-4-3-5(2)7-6-4/h3H,1-2H3
