13
gdb 3416	4.91484	3.15906	2.20873	4.0478	54.83	-0.2574	0.0283	0.2857	593.3831	0.104156	-340.6212	-340.615711	-340.614767	-340.650456	20.741	
N	-0.0961201701	 1.2334213859	 0.3066381318	-0.53557
C	-0.0315713563	 0.024643265	-0.0352599755	 0.434584
O	 1.1300227489	-0.6547211957	-0.3270218199	-0.24558
C	 0.8313295665	-1.9521925517	-0.8511007806	-0.114408
C	-0.6525462516	-2.1307632637	-0.5872214317	-0.033311
C	-1.1222531956	-1.9456571703	 0.8019619446	-0.245495
N	-1.1738366792	-0.8173880231	-0.1661345415	-0.1306
H	 0.837522318	 1.6430416428	 0.3221520247	 0.228769
H	 1.0471076762	-1.9711225286	-1.9256965466	 0.124589
H	 1.4686225808	-2.6866986021	-0.3491643232	 0.12655
H	-1.2469130943	-2.6809720219	-1.3086428593	 0.11526
H	-2.0977516107	-2.3132912945	 1.100979863	 0.137027
H	-0.3812562326	-1.8908626521	 1.5952119842	 0.138186
136.3839	246.5457	372.6269	456.3857	672.0097	715.2646	746.2749	775.1281	854.0423	872.8124	881.1978	944.2519	981.863	1008.6859	1051.2559	1105.8453	1116.3103	1129.7641	1163.2123	1220.8161	1228.7442	1309.9281	1380.8923	1402.3899	1504.9589	1524.0946	1786.9135	3036.8217	3084.2792	3119.7199	3171.7609	3215.6765	3502.1696
N=C1OCC2CN12	[NH][C]1OC[C@H]2CN12	
InChI=1S/C4H6N2O/c5-4-6-1-3(6)2-7-4/h3,5H,1-2H2	InChI=1S/C4H6N2O/c5-4-6-1-3(6)2-7-4/h3,5H,1-2H2/t3-,6?/m1/s1
