13
gdb 3089	3.92202	2.33987	2.07998	1.7487	56.18	-0.2365	0.0341	0.2706	674.0367	0.09979	-344.391557	-344.384423	-344.383479	-344.42234	26.53	
O	 0.0711413917	 1.3292585365	 0.3566952238	-0.426578
C	 0.0393279474	-0.0463612821	 0.1190576781	 0.035377
C	-0.3934923078	-0.8602256743	 1.2997694356	 0.114421
O	-0.6669776882	-0.1967425512	 2.4768467131	-0.416848
C	-1.3345602304	-0.7303978632	 0.0817111377	-0.312131
C	-2.482088286	 0.1164590806	 0.1345814096	 0.300849
C	-3.4026988988	 0.8932010833	 0.1615963799	-0.432042
H	-0.721060974	 1.7240630017	-0.0340779455	 0.299295
H	 0.8110609373	-0.401447497	-0.559078366	 0.108309
H	 0.0387190701	-1.8436370803	 1.4566327938	 0.1136
H	-0.4909154657	 0.739845373	 2.2987372443	 0.293699
H	-1.4130491932	-1.607487036	-0.5537731094	 0.119596
H	-4.2463371223	 1.5364738291	 0.2088561549	 0.202455
124.8497	138.5475	256.3121	291.4847	338.0616	392.0382	516.9739	580.3139	609.5173	648.1628	667.8101	684.4345	734.0212	778.6257	920.0984	1000.8817	1018.3128	1100.4349	1105.098	1164.2317	1228.9272	1337.7649	1341.1483	1367.2034	1378.4392	1453.9086	2224.8004	3136.0581	3150.9524	3164.4981	3501.9409	3712.4003	3734.6488
OC1C(O)C1C#C	O[C@H]1[C@@H](O)[C@H]1C#C	
InChI=1S/C5H6O2/c1-2-3-4(6)5(3)7/h1,3-7H	InChI=1S/C5H6O2/c1-2-3-4(6)5(3)7/h1,3-7H/t3-,4+,5-
