14
gdb 1768	4.84192	1.94778	1.69318	4.2276	58.71	-0.2948	0.007	0.3017	770.2323	0.111369	-324.577047	-324.56943	-324.568485	-324.608531	26.743	
C	-0.0413136443	 1.5391213622	-0.1122312883	-0.429513
C	-0.0291366939	 0.0471009358	 0.0875023353	 0.048878
O	 1.2036006581	-0.6508465972	-0.1095223804	-0.267894
C	 0.6510208302	-0.6449518174	 1.2124469658	 0.226002
C	 1.4436705309	 0.0535376912	 2.295723241	-0.46781
C	 0.0885591197	-1.9254499771	 1.6242765623	 0.25612
N	-0.3611415628	-2.9291130312	 1.9796488117	-0.330478
H	 0.8298346685	 2.0235484371	 0.3309299998	 0.134312
H	-0.0450955273	 1.7639200199	-1.1835933474	 0.144007
H	-0.9480699024	 1.970611682	 0.3237961868	 0.136129
H	-0.8887656553	-0.4748304074	-0.3358604747	 0.113939
H	 1.8467044459	 0.9983553765	 1.9309864152	 0.139544
H	 0.8119679839	 0.2451153388	 3.1681154109	 0.144672
H	 2.2785585688	-0.5780463132	 2.6120069022	 0.152093
142.6207	147.6327	161.0615	174.435	268.8422	333.3215	399.752	469.99	557.4165	595.6884	669.1158	783.8871	881.8783	940.7252	996.2029	1058.9751	1101.1846	1135.6947	1172.8324	1238.5459	1339.0709	1403.3454	1418.8159	1448.976	1472.6005	1483.1602	1491.8892	1509.7091	2356.4521	3046.3446	3054.5249	3101.0038	3109.0696	3120.8084	3142.8426	3157.01
CC1OC1(C)C#N	C[C@H]1O[C@]1(C)C#N	
InChI=1S/C5H7NO/c1-4-5(2,3-6)7-4/h4H,1-2H3	InChI=1S/C5H7NO/c1-4-5(2,3-6)7-4/h4H,1-2H3/t4-,5-/m1/s1
