15
gdb 3561	5.35206	3.06021	3.02329	1.7229	59.21	-0.2503	0.0888	0.3391	550.929	0.127823	-308.467331	-308.462465	-308.461521	-308.495555	20.721	
C	-0.0085303992	 1.5110080943	-0.0571056415	-0.285422
C	 1.3182772045	 0.7964953137	-0.0317609807	-0.052175
C	 0.0222033213	 0.0045382441	-0.0225560722	-0.052176
C	 0.19348148	-0.7035740501	-1.3874349548	 0.05864
C	 1.6546643284	-1.2255523557	-1.3196791717	-0.214751
C	 1.8561089667	 0.3123669675	-1.3992434187	 0.05864
O	 0.6750460947	 0.3667558448	-2.2552279617	-0.285722
H	-0.3018061989	 2.0016862749	 0.8651253164	 0.105688
H	-0.3189180668	 2.0083925608	-0.9673551228	 0.130092
H	 1.984363291	 0.8638234096	 0.8192970863	 0.088284
H	-0.3327825509	-0.5520537268	 0.8357528225	 0.088284
H	-0.6368799819	-1.2740429781	-1.8033249239	 0.081024
H	 1.9850330051	-1.7557825501	-0.4222167751	 0.092694
H	 1.960360156	-1.7364677473	-2.2344670407	 0.105875
H	 2.7382365001	 0.7883113184	-1.8272946213	 0.081024
369.7663	378.1272	509.6725	619.9646	690.7632	755.9132	791.9843	810.1447	855.6989	869.7785	898.0504	910.7914	961.4341	967.5302	997.4903	1064.2916	1065.1626	1074.426	1093.4071	1096.2173	1103.2534	1178.4732	1183.2036	1225.9571	1258.0748	1276.797	1301.3663	1304.8602	1351.1246	1463.0824	1484.0381	3060.9835	3121.4425	3123.736	3137.3857	3140.3242	3185.723	3194.6379	3232.607
C1C2C1C1CC2O1	C1[C@H]2[C@@H]1[C@@H]1C[C@H]2O1	
InChI=1S/C6H8O/c1-3-4(1)6-2-5(3)7-6/h3-6H,1-2H2	InChI=1S/C6H8O/c1-3-4(1)6-2-5(3)7-6/h3-6H,1-2H2/t3-,4+,5+,6-
