17
gdb 4913	5.19792	1.2494	1.07494	1.5259	71.95	-0.1813	0.0431	0.2244	1119.19	0.142706	-363.896122	-363.887946	-363.887002	-363.928865	30.205	
C	 0.0427346956	 1.5424105391	-0.1719007581	-0.363803
C	-0.0252298983	 0.0409404526	 0.1536905143	-0.301068
C	-1.4137843114	-0.5204104773	 0.0761409276	 0.295003
C	-2.15745273	-1.0059383424	 1.0999365273	-0.142556
O	-3.391547204	-1.4214628701	 0.6466655202	-0.179046
C	-3.4128491004	-1.1923443931	-0.6858786081	 0.395515
N	-4.6152758788	-1.4828650206	-1.3171404164	-0.592907
C	-2.2375755861	-0.643730311	-1.1037943429	-0.383474
H	 1.0721673133	 1.90997115	-0.1120569783	 0.108014
H	-0.3294589123	 1.7452217218	-1.1810337556	 0.117979
H	-0.569014773	 2.1198254532	 0.528005861	 0.120514
H	 0.6310104199	-0.5042640705	-0.5375296695	 0.103471
H	 0.3772717008	-0.1331529472	 1.1581401192	 0.099844
H	-1.9835500896	-1.1344489654	 2.154605892	 0.123914
H	-5.0945094123	-2.2678023508	-0.8938921089	 0.254094
H	-4.5074853668	-1.6258664968	-2.311685242	 0.254066
H	-1.9802593464	-0.3651941014	-2.1136408917	 0.090438
64.4001	129.3742	180.817	201.0258	260.8624	310.28	409.5962	436.5191	575.9903	636.2571	664.7482	675.9707	720.7256	752.5534	765.9967	790.5701	951.057	967.8078	1007.4779	1064.2214	1087.1963	1093.6775	1144.4855	1194.8019	1249.4255	1288.0607	1338.4524	1360.8125	1407.7113	1457.4633	1483.0838	1496.0242	1506.7298	1604.7705	1635.3699	1672.7173	3017.5719	3035.5476	3058.8375	3105.9024	3111.2004	3251.5138	3283.6391	3544.0652	3645.5138
CCC1=COC(N)=C1	CCc1coc(N)c1	
InChI=1S/C6H9NO/c1-2-5-3-6(7)8-4-5/h3-4H,2,7H2,1H3	InChI=1S/C6H9NO/c1-2-5-3-6(7)8-4-5/h3-4H,2,7H2,1H3
