10
gdb 958	6.39619	2.93895	2.01369	1.4464	48.86	-0.2773	-0.0535	0.2238	570.3717	0.070515	-355.557059	-355.552144	-355.5512	-355.58575	17.897	
O	 0.1065295088	 1.3009116619	 0.1210773051	-0.373723
C	 0.0701538934	-0.027308895	 0.0607343693	 0.469868
N	 0.0907912262	-0.5931744604	-1.1518143969	-0.335091
C	 0.0518364802	-1.922559112	-1.1283020383	 0.09055
N	-0.0033240479	-2.6873650673	-0.037836487	-0.252075
C	-0.0180759958	-1.9923465212	 1.1030711787	 0.089317
N	 0.0161979661	-0.6692397695	 1.2271259026	-0.275508
H	 0.1434739097	 1.6188897381	-0.7924475775	 0.313023
H	 0.0665921339	-2.4288508213	-2.0910783864	 0.136138
H	-0.0626541547	-2.5644003234	 2.0272747704	 0.137502
188.8166	373.9317	457.5206	563.752	595.9855	608.8637	712.4409	853.2917	912.7383	996.1697	1005.6875	1050.3923	1157.4537	1183.5307	1260.3783	1365.6586	1399.2193	1424.4129	1504.3885	1606.1471	1629.2482	3164.4696	3168.247	3769.5937
OC1=NC=NC=N1	Oc1ncncn1	
InChI=1S/C3H3N3O/c7-3-5-1-4-2-6-3/h1-2H,(H,4,5,6,7)	InChI=1S/C3H3N3O/c7-3-5-1-4-2-6-3/h1-2H,(H,4,5,6,7)
