16
gdb 233	7.4644	1.70877	1.47982	0.1156	65.24	-0.2404	0.0633	0.3036	861.2875	0.140828	-234.486176	-234.478004	-234.477059	-234.519337	27.581	
C	-0.0045661918	 1.4874070721	 0.0200479175	-0.495396
C	 0.0191915584	 0.0314242547	-0.0109643115	 0.00953
C	 0.0438008172	-1.1727807884	-0.0301347087	 0.110649
C	 0.0590772766	-2.6358721619	-0.072741769	-0.11777
C	-1.3535523681	-3.2133048819	 0.1457773375	-0.37241
C	 0.6737461319	-3.147388332	-1.3907837994	-0.372409
H	 0.6021724536	 1.8794912473	 0.8440847227	 0.144846
H	 0.3883916874	 1.9134531427	-0.9099657435	 0.144822
H	-1.0238138569	 1.8677840554	 0.1515936751	 0.14482
H	 0.6947896579	-2.9913897301	 0.7507495173	 0.100091
H	-1.7757006174	-2.871120938	 1.094325139	 0.121222
H	-2.0265362702	-2.8973111953	-0.6574849947	 0.121502
H	-1.320701224	-4.307718257	 0.1556114745	 0.108889
H	 1.6859839516	-2.7585498882	-1.5294220084	 0.121222
H	 0.7195433212	-4.2413806262	-1.3907430929	 0.108889
H	 0.0691598228	-2.8291881133	-2.2458944655	 0.121502
19.2091	114.3676	140.269	229.6951	260.6428	298.7341	308.5693	360.3442	509.9338	539.1339	681.8561	880.3635	930.1657	963.1971	1051.1447	1053.4137	1066.8811	1121.2296	1151.7432	1211.4657	1326.717	1351.5987	1394.3194	1414.8333	1416.9472	1479.6524	1479.7798	1485.4067	1489.1762	1498.0815	1510.2161	2368.9192	2999.2007	3023.7898	3033.5813	3037.2529	3083.1058	3083.2198	3103.934	3109.1826	3116.596	3118.527
CC#CC(C)C	CC#CC(C)C	
InChI=1S/C6H10/c1-4-5-6(2)3/h6H,1-3H3	InChI=1S/C6H10/c1-4-5-6(2)3/h6H,1-3H3
