13
gdb 3700	3.74973	3.33123	1.78369	0.5157	55.53	-0.2077	0.0293	0.2371	670.0325	0.102681	-340.654465	-340.647629	-340.646685	-340.685112	24.496	
C	 0.0180328922	 1.467022223	 0.0082687609	-0.521039
C	 0.0149131029	-0.0277292686	 0.0483904899	 0.244252
N	-0.0801866716	-0.7595315628	-1.0639521956	-0.277727
N	-0.0512167832	-2.0328623237	-0.6440639916	-0.186083
C	 0.0600233647	-2.1566074492	 0.7070100861	-0.110404
C	 0.1053357617	-0.8659409136	 1.1872210955	 0.191821
O	 0.2153619771	-0.5144657068	 2.4999776803	-0.444307
H	 0.9402290401	 1.8872102115	 0.4293214146	 0.124273
H	-0.0619280561	 1.8056786979	-1.0266459665	 0.150239
H	-0.8233704975	 1.8947751266	 0.5680523816	 0.124484
H	-0.1104919545	-2.7712997545	-1.322658127	 0.273493
H	 0.0972807844	-3.1094643421	 1.2077252688	 0.132062
H	 0.2243799297	 0.4455473124	 2.558477303	 0.298938
101.7088	187.3008	242.5879	246.8397	339.2636	446.6351	458.1489	638.8594	656.8505	700.4091	743.972	760.1726	937.6935	995.774	1064.0001	1068.9397	1157.5218	1219.1449	1258.5043	1347.2946	1408.0641	1428.8718	1480.9411	1484.6772	1497.1052	1538.8159	1650.8568	3016.9913	3061.7843	3131.076	3276.4835	3687.6574	3836.7142
CC1=NNC=C1O	Cc1n[nH]cc1O	
InChI=1S/C4H6N2O/c1-3-4(7)2-5-6-3/h2,7H,1H3,(H,5,6)	InChI=1S/C4H6N2O/c1-3-4(7)2-5-6-3/h2,7H,1H3,(H,5,6)
