19
gdb 3990	5.50295	0.74395	0.70925	1.4599	72.	-0.2396	0.0169	0.2565	1586.8145	0.162524	-402.159485	-402.149321	-402.148376	-402.195685	34.921	
C	-0.0370649829	 1.518988983	-0.0132995134	-0.469802
C	 0.0080560206	 0.0139389719	-0.0307265135	 0.362594
C	 0.0538050531	-0.7528107408	 1.2651803516	-0.280327
C	 1.3492905363	-0.5132124342	 2.0593607877	-0.168838
C	 1.368300909	-1.2722378837	 3.3797450301	-0.070248
O	 2.5894824271	-0.9719201955	 4.0373245333	-0.421545
N	 0.0150858656	-0.6868845807	-1.1002957395	-0.167065
O	-0.0085793601	 0.1212883446	-2.2518010386	-0.401746
H	 0.9225233765	 1.9395724566	-0.334508728	 0.147066
H	-0.7886261794	 1.8824956038	-0.7191270279	 0.148376
H	-0.2612847777	 1.8991100071	 0.9856453583	 0.117856
H	-0.8069904813	-0.4577719496	 1.8825894573	 0.101986
H	-0.0562486339	-1.817330159	 1.0373233459	 0.115266
H	 2.2129697472	-0.8232768531	 1.4606061405	 0.1169
H	 1.4798983996	 0.5537403176	 2.2739788668	 0.109443
H	 0.5009934466	-0.9734560545	 3.9923225155	 0.0827
H	 1.2721794446	-2.3535182601	 3.1879556622	 0.087221
H	 2.6164875876	-1.4650393593	 4.8623113825	 0.285681
H	-0.0305428682	-0.535206534	-2.9555685908	 0.304482
48.6633	63.2593	81.7265	108.3161	143.1251	258.1375	262.1814	292.7121	341.6193	369.9923	396.3413	469.0336	557.9308	650.2779	762.4544	819.7779	871.1798	974.0969	1004.0837	1016.4621	1036.5014	1051.2004	1084.5286	1122.5706	1209.3743	1231.8157	1266.8813	1299.6384	1308.1254	1316.5999	1371.0149	1400.4995	1401.47	1463.0343	1474.3922	1477.4718	1484.9283	1500.7626	1528.8957	1729.4864	2955.9005	2982.3665	3006.0307	3040.397	3042.7147	3075.5359	3095.066	3102.5263	3133.7244	3824.1119	3830.9468
CC(CCCO)=NO	CC(=NO)CCCO	
InChI=1S/C5H11NO2/c1-5(6-8)3-2-4-7/h7-8H,2-4H2,1H3	InChI=1S/C5H11NO2/c1-5(6-8)3-2-4-7/h7-8H,2-4H2,1H3
