13
gdb 2025	7.85263	1.80391	1.66532	2.15	54.39	-0.248	-0.0309	0.2171	728.8313	0.099981	-344.434438	-344.42818	-344.427235	-344.464832	23.226	
O	-0.0107582186	 0.216957808	-0.7079552756	-0.283641
C	-0.0168993412	 1.2675765354	-0.1390162174	 0.405974
C	-1.1369362308	 2.2047212055	 0.3606692313	-0.429612
C	-0.0314884291	 3.2233724678	 0.6888448345	 0.440377
C	-0.0521641173	 4.6812483275	 0.5886538952	-0.258638
O	-0.0259457754	 4.0126633415	 1.8601272423	-0.261953
C	 1.0911628887	 2.2342208666	 0.3302435082	-0.429612
H	-1.8881027457	 2.4854336422	-0.382491114	 0.137824
H	-1.645728176	 1.8192774233	 1.2509191386	 0.149037
H	 0.8577305068	 5.2197480378	 0.3269982094	 0.121692
H	-0.9828031944	 5.1953712704	 0.3521322679	 0.121692
H	 1.6340782573	 1.862695693	 1.2061399117	 0.149037
H	 1.8140810057	 2.5344464409	-0.4330329221	 0.137824
56.9217	295.9478	316.7242	359.469	417.3781	502.0465	515.7078	650.0644	719.1833	832.1626	867.1273	884.0538	965.7788	990.7237	1032.8669	1081.414	1125.7618	1155.9828	1178.0772	1193.0741	1208.3306	1219.3708	1415.8704	1418.3119	1452.3758	1537.8181	1904.2872	3053.2939	3058.2182	3082.4677	3112.149	3113.5116	3170.1733
O=C1CC2(CO2)C1	O=C1CC2(CO2)C1	
InChI=1S/C5H6O2/c6-4-1-5(2-4)3-7-5/h1-3H2	InChI=1S/C5H6O2/c6-4-1-5(2-4)3-7-5/h1-3H2
