14
gdb 1388	4.71246	1.41059	1.14126	4.1576	66.15	-0.2669	0.0204	0.2873	1024.0718	0.111627	-287.433999	-287.425591	-287.424647	-287.468115	27.836	
C	-0.0101064968	 1.4908912525	 0.0238223435	-0.497757
C	 0.0021438592	 0.035842296	-0.0017522276	 0.062565
C	 0.0214187355	-1.1664823084	-0.0269704695	 0.103762
C	 0.0163045487	-2.6306620047	-0.0462051571	-0.297807
C	-1.4183576231	-3.2130993932	 0.0010881564	-0.380074
C	 0.7389984235	-3.1444937657	-1.2240493373	 0.288951
N	 1.2941818299	-3.5691807002	-2.1436574179	-0.32288
H	 1.0083184223	 1.8935707951	 0.0201134114	 0.157164
H	-0.5330773714	 1.8967580515	-0.8485676211	 0.156325
H	-0.5145978737	 1.8663829689	 0.9205215703	 0.153104
H	 0.5614459067	-2.9977847247	 0.8345474389	 0.154239
H	-1.3836112717	-4.3051026005	 0.0119101652	 0.137797
H	-1.920158482	-2.8601157369	 0.9044472203	 0.136539
H	-1.9902268971	-2.8853664397	-0.8691741155	 0.148072
20.6678	88.3847	131.7772	201.7378	231.0881	282.197	305.8726	393.7837	478.3667	533.5095	577.1074	736.8865	853.9373	991.8967	1052.5321	1053.1887	1072.9082	1091.6148	1188.7997	1298.8678	1328.0393	1406.9481	1414.4208	1476.2408	1477.1858	1489.3513	1496.8717	2362.1723	2381.1962	3014.7767	3032.4081	3056.8901	3095.4459	3096.6404	3139.1648	3145.7085
CC#CC(C)C#N	CC#C[C@@H](C)C#N	
InChI=1S/C6H7N/c1-3-4-6(2)5-7/h6H,1-2H3	InChI=1S/C6H7N/c1-3-4-6(2)5-7/h6H,1-2H3/t6-/m1/s1
