14
gdb 2055	5.00017	2.63587	1.80444	3.0176	59.72	-0.2173	-0.0032	0.2141	677.4868	0.116017	-324.630221	-324.624197	-324.623253	-324.660011	22.914	
O	 0.024944594	-0.0743076452	 0.0215193033	-0.360682
C	-0.0234686476	 1.1379717784	 0.0357838956	 0.398713
C	-1.317197189	 1.9434381867	 0.0723027307	-0.313483
C	-1.1974119705	 3.2839515633	 0.8179661996	-0.27029
C	 0.0605766866	 4.0073012295	 0.4123552927	-0.110372
C	 1.1291283625	 3.3100428981	 0.0242807907	 0.022413
N	 1.1165053578	 1.911704693	-0.0483397888	-0.321172
H	-1.5832454884	 2.1347508266	-0.9764773914	 0.131226
H	-2.094364975	 1.3010967586	 0.4899318475	 0.12967
H	-2.0839643037	 3.8942047536	 0.6178428124	 0.111663
H	-1.1919126039	 3.1085584173	 1.9045147607	 0.118754
H	 0.1114193511	 5.0876264337	 0.4625351107	 0.096039
H	 2.0714156294	 3.7685068364	-0.2519504107	 0.113476
H	 1.9787321667	 1.4019028499	-0.1663457131	 0.254045
128.0844	182.4535	406.6408	449.3094	502.5275	527.7449	552.5608	647.0421	726.2921	777.3876	788.6532	902.7455	945.2697	989.5786	1022.3337	1040.7162	1099.9422	1166.2183	1185.7941	1257.8401	1298.0452	1339.1438	1377.4197	1423.8388	1457.8629	1465.7163	1484.5977	1724.4781	1805.8912	2993.5866	3026.1848	3068.3127	3120.2486	3194.9048	3216.8088	3629.271
O=C1CCC=CN1	O=C1CCC=CN1	
InChI=1S/C5H7NO/c7-5-3-1-2-4-6-5/h2,4H,1,3H2,(H,6,7)	InChI=1S/C5H7NO/c7-5-3-1-2-4-6-5/h2,4H,1,3H2,(H,6,7)
