15
gdb 1644	5.10911	1.76774	1.34556	0.1453	57.93	-0.2389	-0.0809	0.158	890.3706	0.121452	-345.695868	-345.687346	-345.686402	-345.729675	28.418	
C	 0.039938359	 1.5270807373	-0.1130533749	-0.384423
C	-0.0269237213	 0.0145672972	 0.0762859887	-0.275351
C	 0.7950663494	-0.4783801939	 1.2456486167	 0.276015
O	 1.4469226771	 0.2389454931	 1.969815891	-0.282027
C	 0.7773428791	-2.0074261183	 1.5026716231	 0.303474
C	 1.5996130115	-2.4922904641	 2.6707161581	-0.473636
O	 0.1274117798	-2.7284802452	 0.7818266694	-0.273585
H	 1.0682681471	 1.8561804571	-0.2847722122	 0.130834
H	-0.5682516228	 1.8344027785	-0.9678203558	 0.115556
H	-0.3235221902	 2.050416999	 0.7753564157	 0.130831
H	-1.0562496458	-0.3369842778	 0.2248998807	 0.13976
H	 0.3108121059	-0.5277633492	-0.8164635763	 0.139757
H	 1.2636112884	-2.0071357363	 3.5926636838	 0.156085
H	 1.5144197262	-3.5756269777	 2.7566718478	 0.140628
H	 2.6461672766	-2.1993833596	 2.5396071244	 0.156083
46.4198	62.5488	107.8482	180.582	190.3383	297.7514	347.3371	358.4196	517.1005	585.8191	598.4653	734.3276	788.2129	903.4179	992.0688	995.6727	1052.0571	1095.9928	1112.1706	1248.4482	1260.2816	1373.5015	1385.4266	1416.1699	1435.439	1452.315	1460.1396	1494.5166	1497.9899	1800.5488	1807.5956	3035.7425	3049.4081	3050.7461	3057.5241	3110.5421	3123.1035	3123.685	3161.6461
CCC(=O)C(C)=O	CCC(=O)C(=O)C	
InChI=1S/C5H8O2/c1-3-5(7)4(2)6/h3H2,1-2H3	InChI=1S/C5H8O2/c1-3-5(7)4(2)6/h3H2,1-2H3
