19
gdb 3385	5.11263	1.85675	1.79328	0.181	70.73	-0.2471	0.09	0.3371	822.4858	0.17273	-273.757658	-273.750546	-273.749602	-273.788725	27.265	
C	 0.2141906576	 1.4192853445	 0.1667151952	-0.370899
C	-0.2045218801	-0.0268099547	-0.1252334943	-0.206383
C	 0.5800779819	-0.6357404999	-1.2710016054	 0.026646
C	 1.9632752841	-1.2276298098	-1.1691727134	-0.062999
C	 2.152534626	-2.0180948617	 0.1337022763	-0.227121
C	 0.9286072184	-2.9129209419	-0.2465786936	-0.225219
C	 0.7575742944	-2.1061563126	-1.5414315374	-0.084204
H	 1.2715653227	 1.473288396	 0.4466934973	 0.118264
H	 0.0747807263	 2.0566916381	-0.7137226262	 0.111158
H	-0.3738079256	 1.8484806126	 0.9841655967	 0.107907
H	-0.0878893952	-0.6282781565	 0.7820829536	 0.098722
H	-1.2743576933	-0.0568769926	-0.3704878702	 0.093419
H	 0.4621486196	-0.076562091	-2.199388201	 0.077287
H	 2.7729541276	-0.8837298763	-1.8025892565	 0.077158
H	 3.0847735639	-2.5869129331	 0.1481252323	 0.100562
H	 2.0866106231	-1.4482523419	 1.0665248466	 0.094029
H	 1.2242287052	-3.9473483414	-0.4350394132	 0.100042
H	 0.077793792	-2.9209848599	 0.4424057948	 0.094054
H	 0.5021181413	-2.5352237081	-2.5037431518	 0.077578
76.1623	182.3018	202.4904	275.6429	291.2776	454.1328	522.7768	703.2595	745.8593	782.6946	794.5879	808.6138	882.8847	939.8707	948.8194	956.0564	1002.141	1015.689	1033.6039	1070.7533	1073.6685	1104.9879	1130.76	1156.0078	1218.0406	1224.2201	1245.0735	1263.229	1295.3657	1305.7402	1331.644	1364.8926	1410.0966	1453.8611	1476.3623	1492.6126	1498.1599	1505.2764	1509.958	3022.9533	3029.6777	3041.9974	3049.7319	3071.1715	3092.5054	3096.9341	3102.5734	3109.7523	3111.3353	3164.5853	3176.8562
CCC1C2CCC12	CC[C@H]1[C@H]2CC[C@@H]12	
InChI=1S/C7H12/c1-2-5-6-3-4-7(5)6/h5-7H,2-4H2,1H3	InChI=1S/C7H12/c1-2-5-6-3-4-7(5)6/h5-7H,2-4H2,1H3/t5-,6+,7-
