14
gdb 538	18.07094	1.30977	1.28212	2.8428	51.64	-0.2544	-0.0258	0.2285	896.28	0.117214	-307.563525	-307.556074	-307.55513	-307.595647	23.884	
C	 0.0293762006	 1.3911389471	 0.1329130454	-0.231722
O	 0.0018136367	-0.0149556277	 0.0491494606	-0.227369
C	-1.3015465137	-0.5288497925	-0.0898536268	-0.056687
C	-1.202207119	-2.0499248626	-0.2054737595	-0.278824
C	-2.5546372077	-2.7177707522	-0.113351538	 0.153424
O	-3.0068750204	-3.4774894932	-0.929748986	-0.232292
H	 1.0746846814	 1.6901485335	 0.2387442588	 0.131913
H	-0.3863333609	 1.8624300017	-0.7714364503	 0.108154
H	-0.5366245439	 1.7596286425	 1.0031139081	 0.105907
H	-1.9220579291	-0.2505393042	 0.7808380224	 0.089302
H	-1.7933049536	-0.1080148656	-0.9829440825	 0.101108
H	-0.7121340849	-2.3463478903	-1.1354631693	 0.13154
H	-0.5938396895	-2.4057061842	 0.637869304	 0.132969
H	-3.133502486	-2.4556893023	 0.8042150231	 0.072578
58.5306	85.2474	113.0442	193.0231	232.5113	366.2995	399.9236	537.267	789.7324	870.1728	967.8362	1022.9319	1097.2174	1137.3102	1163.6266	1183.3699	1223.4576	1233.3493	1281.0589	1307.576	1423.2292	1432.0991	1467.1704	1481.2202	1485.8477	1504.0816	1532.4352	1838.3785	2848.9146	2943.2687	2971.9281	2978.3809	3017.0349	3026.8207	3118.2581	3118.4698
COCCC=O	COCCC=O	
InChI=1S/C4H8O2/c1-6-4-2-3-5/h3H,2,4H2,1H3	InChI=1S/C4H8O2/c1-6-4-2-3-5/h3H,2,4H2,1H3
