17
gdb 4186	4.09454	1.43086	1.34692	1.226	72.79	-0.2283	0.0156	0.2439	980.4545	0.14159	-363.792876	-363.785131	-363.784187	-363.824764	29.549	
C	-0.0141109033	 1.5599615226	-0.0087047888	-0.417572
C	 0.1159895075	 0.0526885866	-0.0728252715	 0.000529
C	 0.7287470853	-0.7293606623	-1.1936597914	-0.073204
C	 1.9518537015	-0.0093812922	-1.795988397	-0.334466
C	 2.5652832349	-0.0355769687	-0.3998673565	 0.444546
N	 3.7027852604	 0.2263175929	 0.0941327381	-0.267447
O	 4.5482590201	 0.8009810785	-0.8798911558	-0.39737
C	 1.3948077932	-0.7200912306	 0.2111219586	-0.167555
H	 0.8732329539	 2.0700729581	-0.3908839919	 0.131833
H	-0.877142022	 1.901010117	-0.5910662959	 0.117538
H	-0.1585696853	 1.8875235843	 1.02613297	 0.122745
H	-0.7402913635	-0.4678496992	 0.3536916925	 0.092449
H	 0.2158552495	-1.5564484852	-1.6679530048	 0.094686
H	 2.5302859789	-0.6362446152	-2.4806492557	 0.130558
H	 1.7880654646	 0.9633186304	-2.2678871359	 0.118384
H	 5.3652426501	 0.9254130318	-0.3858576165	 0.304709
H	 1.4418161542	-1.4908830987	 0.9699546024	 0.099638
90.4683	175.9566	216.3976	238.6331	287.7389	351.105	429.1852	483.9432	496.4565	613.9586	693.708	715.3531	810.6309	843.1184	880.3066	950.927	962.5886	974.0911	1004.6832	1044.2542	1045.4474	1061.9587	1128.0763	1143.6487	1178.218	1206.9352	1234.5867	1296.6457	1326.4319	1410.0933	1414.5617	1436.0242	1472.0043	1495.129	1502.7322	1782.3206	3036.4961	3059.4858	3095.3236	3104.9951	3114.0618	3130.6184	3189.5988	3199.493	3822.5638
CC1C2CC(=NO)C12	C[C@H]1[C@H]2CC(=NO)[C@@H]12	
InChI=1S/C6H9NO/c1-3-4-2-5(7-8)6(3)4/h3-4,6,8H,2H2,1H3	InChI=1S/C6H9NO/c1-3-4-2-5(7-8)6(3)4/h3-4,6,8H,2H2,1H3/t3-,4+,6-/m0/s1
