14
gdb 3537	6.50575	3.16807	2.81985	1.637	60.89	-0.2151	-0.0065	0.2086	535.6776	0.116054	-287.35146	-287.346773	-287.345829	-287.379462	19.769	
C	-0.0451215784	 1.5055060237	 0.0097221304	-0.18319
C	 1.467872079	 1.2721382386	-0.0055432213	-0.061905
C	 1.2167013407	 0.1001977891	 0.9954526083	-0.027403
C	 2.1388653456	-1.0473607991	 0.6434364464	-0.089549
C	 2.1264775163	-1.0404280532	-0.6909281088	-0.089549
C	 1.1980440699	 0.1106341767	-1.0138208138	-0.027403
N	 0.0157889664	-0.0237335758	 0.001209883	-0.145033
H	-0.4958416765	 1.9187916893	 0.9167065397	 0.097462
H	-0.5125710741	 1.9281515165	-0.8843893882	 0.097462
H	 2.2950306713	 1.9941223984	-0.0094737626	 0.062186
H	 0.9440171752	 0.2968028622	 2.0331225173	 0.072237
H	 2.6407476561	-1.7080308632	 1.3352857477	 0.111224
H	 2.6153647977	-1.6938260618	-1.3988027208	 0.111224
H	 0.9061573908	 0.3179807986	-2.0441502073	 0.072237
413.4014	446.4585	491.8364	674.7588	699.344	751.9602	786.1317	790.1211	855.3006	907.2368	914.585	920.1002	951.2764	957.3235	1007.2807	1047.5433	1095.3179	1101.8796	1128.651	1143.6864	1175.0957	1210.8793	1242.0291	1257.4683	1264.8889	1325.733	1335.3833	1527.2403	1633.2235	3017.0942	3048.834	3106.0019	3112.8439	3116.8419	3228.7867	3255.4077
C1C2C3C=CC2N13	C1[C@H]2[C@@H]3C=C[C@H]2N13	
InChI=1S/C6H7N/c1-2-6-4-3-7(6)5(1)4/h1-2,4-6H,3H2	InChI=1S/C6H7N/c1-2-6-4-3-7(6)5(1)4/h1-2,4-6H,3H2/t4-,5-,6+
