17
gdb 4130	3.24462	1.53269	1.22454	1.9277	68.61	-0.2297	-0.0006	0.2292	1020.2299	0.139953	-400.944721	-400.935966	-400.935021	-400.978794	31.886	
C	-0.2975358391	 1.428885556	 0.0096093794	-0.495188
C	 0.1077302927	-0.0196189218	 0.0494046881	 0.404062
N	 0.3136167763	-0.6950685796	 1.1228551611	-0.231648
O	 0.1169774235	 0.0458370414	 2.2984571057	-0.39602
C	 0.2426789112	-0.7310161714	-1.2433888757	-0.155065
C	 1.3150390152	-1.8032771023	-1.4565124172	-0.3275
C	-0.1139956035	-2.2228598521	-1.3452493958	 0.14503
O	-0.5993635216	-2.9167951592	-0.2545978722	-0.42091
H	 0.3439845307	 1.9781287606	-0.6871299931	 0.136364
H	-1.3249193745	 1.5170345439	-0.3631257731	 0.144903
H	-0.2421018856	 1.8882949434	 0.9944475229	 0.158716
H	 0.3754963035	-0.5822919972	 2.9806769592	 0.306742
H	 0.0000222544	-0.1154749517	-2.1029759049	 0.088618
H	 1.8085607961	-1.8307511999	-2.422389937	 0.113465
H	 1.9536317829	-2.0045978872	-0.6027732184	 0.128651
H	-0.6274062159	-2.5249432539	-2.2530454923	 0.106966
H	-0.3012778064	-2.4377571589	 0.5400665233	 0.292813
40.1639	58.9055	159.1725	199.0193	314.0529	336.5198	347.6844	386.7784	452.0184	494.2994	532.9282	588.6316	683.3349	753.0352	767.5288	841.1017	924.9631	961.6265	1001.1085	1038.4869	1056.7186	1061.3849	1109.8485	1118.1115	1151.6069	1224.4521	1241.57	1367.0163	1383.8788	1395.746	1421.7614	1459.2753	1480.6265	1487.5864	1495.5768	1706.9515	3039.8803	3092.8085	3126.4776	3156.6843	3165.5626	3173.7025	3222.4491	3585.546	3825.6509
CC(=NO)C1CC1O	CC(=NO)[C@H]1C[C@H]1O	
InChI=1S/C5H9NO2/c1-3(6-8)4-2-5(4)7/h4-5,7-8H,2H2,1H3	InChI=1S/C5H9NO2/c1-3(6-8)4-2-5(4)7/h4-5,7-8H,2H2,1H3/t4-,5-/m1/s1
