14
gdb 3585	4.95886	3.3154	2.6584	1.0837	55.66	-0.2262	0.066	0.2922	554.1915	0.11562	-324.528533	-324.523435	-324.522491	-324.557075	20.587	
C	 0.1037246193	 1.5459076027	 0.0863141143	-0.239432
C	 1.2760225512	 0.638298589	-0.0272536945	-0.054812
C	 1.9976261993	 0.2944753737	 1.2531551148	 0.031803
O	 1.4288241072	 0.8853672038	 2.4309096682	-0.250503
C	 1.0676322034	-0.4632118748	 2.1054178066	 0.03846
C	-0.2484296406	-0.5904999437	 1.3531085424	-0.195603
N	-0.1007050178	 0.0929839619	 0.0467192848	-0.106185
H	-0.0174625864	 2.0670380211	 1.0304354634	 0.135183
H	-0.2608971403	 2.0707228063	-0.7928438715	 0.112769
H	 1.8143187013	 0.5090336515	-0.9617572582	 0.092617
H	 3.0754353522	 0.1618581716	 1.2632676338	 0.100988
H	 1.3770037136	-1.2192649006	 2.8246217892	 0.099896
H	-0.4567893047	-1.6496381482	 1.1617423262	 0.113526
H	-1.0925091177	-0.1774047343	 1.9150115504	 0.121294
275.4129	313.8934	423.7025	543.6958	696.9816	713.939	755.2621	790.3786	860.78	867.4355	909.3469	939.1159	959.0668	1032.6322	1045.2623	1067.704	1089.0564	1117.3528	1129.4892	1156.66	1231.0498	1251.3923	1272.665	1322.7218	1327.8586	1367.0018	1423.6617	1481.7424	1497.3552	3038.5052	3084.1167	3111.3579	3131.9342	3148.4369	3166.6521	3207.489
C1C2C3OC3CN12	C1[C@H]2[C@H]3O[C@H]3CN12	
InChI=1S/C5H7NO/c1-3-5-4(7-5)2-6(1)3/h3-5H,1-2H2	InChI=1S/C5H7NO/c1-3-5-4(7-5)2-6(1)3/h3-5H,1-2H2/t3-,4-,5+,6?/m0/s1
