15
gdb 2246	4.69019	2.68669	2.19263	1.3819	56.33	-0.2514	0.0725	0.3239	637.6785	0.126063	-345.637174	-345.631008	-345.630064	-345.666737	24.068	
O	-0.1975804698	 1.4147463519	-0.0058831556	-0.466065
C	-0.090866872	 0.0273109561	 0.0286721095	 0.372408
C	-0.396412387	-0.8153966974	-1.1815075498	-0.346231
C	-1.3204222227	-0.8376914738	 0.0219801771	-0.098082
C	-1.0616346132	-1.9231142343	 1.0474453106	-0.089758
O	 0.3535852421	-1.9267247718	 1.2498780341	-0.254868
C	 0.8317351326	-0.6004636661	 1.0661214846	-0.139571
H	 0.5285126507	 1.7581520433	-0.5374339438	 0.286276
H	-0.7647160186	-0.2849678303	-2.0526505545	 0.113359
H	 0.2194571003	-1.6858975512	-1.3868169498	 0.121162
H	-2.3047402089	-0.3937458594	-0.0604857812	 0.100306
H	-1.5967822996	-1.6954979569	 1.983390038	 0.095129
H	-1.3411233586	-2.931646524	 0.7255247899	 0.108793
H	 1.882029689	-0.6728124945	 0.7618029828	 0.099777
H	 0.7727293457	-0.0040724517	 1.9912066078	 0.097363
224.2365	242.7673	291.6669	353.1936	385.7992	442.9393	572.3127	681.6963	724.2461	841.1727	906.5809	924.6334	935.236	940.7874	1029.1965	1048.0174	1070.4886	1092.2429	1106.4067	1118.9134	1206.3706	1241.4248	1262.6627	1277.3555	1333.1593	1349.4389	1371.3029	1416.094	1485.6419	1509.5806	1522.8669	2974.4613	2980.0241	3060.1014	3069.4601	3125.7775	3194.115	3221.446	3801.2516
OC12CC1COC2	O[C@]12C[C@H]1COC2	
InChI=1S/C5H8O2/c6-5-1-4(5)2-7-3-5/h4,6H,1-3H2	InChI=1S/C5H8O2/c6-5-1-4(5)2-7-3-5/h4,6H,1-3H2/t4-,5-/m0/s1
