17
gdb 1519	7.88922	1.24756	1.12804	3.5615	63.03	-0.2372	0.0669	0.3042	1078.34	0.147875	-343.078368	-343.069385	-343.068441	-343.112828	30.187	
C	-0.2665893882	 1.4623514687	 0.1559434946	-0.378602
C	 0.3082235741	 0.0755775015	-0.1246287799	-0.123038
N	 0.910405976	-0.5076581926	 1.0652746095	-0.367082
C	 0.8386624543	-1.8691045781	 1.2943661379	 0.49504
O	 0.140866804	-2.6235728357	 0.6377813884	-0.406614
N	 1.6360883451	-2.2986933708	 2.3405463887	-0.359856
C	 1.4918838801	-3.6534825583	 2.8419481541	-0.319696
H	 0.5110053008	 2.1594049582	 0.4896947409	 0.107128
H	-0.7153700795	 1.8797489208	-0.7507218732	 0.118983
H	-1.0339078941	 1.4153958157	 0.9340872848	 0.125619
H	-0.4724690906	-0.6191673699	-0.4394456086	 0.149316
H	 1.0360565896	 0.1305828148	-0.9481210174	 0.098121
H	 1.7074078787	-0.020504966	 1.4460404638	 0.228585
H	 1.9209288982	-1.6018467716	 3.0109550858	 0.231918
H	 2.4409107684	-3.9969618301	 3.2637265158	 0.117022
H	 0.7109850466	-3.745726504	 3.6092902729	 0.117166
H	 1.2176118465	-4.2925553925	 2.0025829521	 0.165991
31.8557	76.4856	97.7399	157.5617	181.7897	263.5554	323.1549	365.2946	388.085	492.5743	518.6625	728.6009	765.0398	802.6845	913.7235	957.8693	1066.9086	1114.5066	1147.843	1155.2344	1176.7451	1196.8692	1244.2749	1300.1982	1389.8159	1413.3467	1440.9159	1485.6608	1492.3374	1496.251	1499.7168	1514.6985	1523.4405	1562.6493	1785.5509	2991.2342	3009.7347	3031.7489	3083.9556	3092.5649	3117.0648	3126.9324	3156.82	3608.7553	3619.247
CCNC(=O)NC	CCNC(=O)NC	
InChI=1S/C4H10N2O/c1-3-6-4(7)5-2/h3H2,1-2H3,(H2,5,6,7)	InChI=1S/C4H10N2O/c1-3-6-4(7)5-2/h3H2,1-2H3,(H2,5,6,7)
