10
gdb 733	9.36373	3.56633	2.62477	3.6981	44.18	-0.2697	-0.0371	0.2326	471.3661	0.073073	-301.332569	-301.327367	-301.326423	-301.361273	17.814	
C	-0.0017979506	 1.4988563658	 0.0438907772	-0.487348
C	 0.026747936	 0.0118279703	-0.0486718452	 0.251435
C	-0.1184540668	-0.8348366586	-1.1011950527	-0.039383
O	-0.0132726584	-2.0927950643	-0.6771533764	-0.161453
N	 0.211974052	-2.0150667861	 0.7321386057	-0.000952
N	 0.2281602998	-0.800805363	 1.0521795791	-0.163553
H	 0.9439509002	 1.8858233471	 0.4356545849	 0.15059
H	-0.1729871532	 1.9439596902	-0.9389584435	 0.133823
H	-0.7974658987	 1.8349875896	 0.715919554	 0.150584
H	-0.2927880703	-0.682874651	-2.153824623	 0.166256
98.5212	276.1269	328.55	629.9568	633.4766	667.9576	703.7014	842.2946	975.1717	1005.2068	1048.4126	1070.3811	1156.272	1259.1293	1327.628	1419.0263	1467.812	1477.2405	1493.9783	1630.3471	3045.9312	3104.7713	3129.5718	3283.8601
CC1=CON=N1	Cc1conn1	
InChI=1S/C3H4N2O/c1-3-2-6-5-4-3/h2H,1H3	InChI=1S/C3H4N2O/c1-3-2-6-5-4-3/h2H,1H3
