16
gdb 2585	2.98991	2.72541	1.69876	1.8786	66.7	-0.2437	0.0434	0.2871	785.1717	0.135459	-288.581699	-288.574018	-288.573074	-288.61315	28.497	
C	-0.2964288822	 1.4718717202	-0.0453481429	-0.379366
C	 0.1850198154	 0.0207839648	 0.0567755885	-0.257299
C	 0.8007945863	-0.5021675345	-1.2365332505	 0.107193
C	 0.6256010952	-1.945290814	-1.5834517896	-0.272741
N	-0.1040203242	-0.920721659	-2.3394492529	-0.331941
C	 2.0033774427	 0.176870802	-1.65971454	 0.348117
C	 3.0164531003	 0.7473887664	-1.9659224492	-0.456452
H	 0.5323226171	 2.1376769117	-0.3021190582	 0.137036
H	-1.0642267281	 1.5827700162	-0.8181802411	 0.118272
H	-0.7229314618	 1.8075620159	 0.9043927858	 0.114311
H	 0.92610296	-0.0679812954	 0.8599124251	 0.113069
H	-0.6508371778	-0.6365949513	 0.3279682832	 0.091441
H	 1.4016970722	-2.4575102154	-2.1434455	 0.128955
H	 0.0862987704	-2.5655668319	-0.8715071174	 0.113483
H	-1.065777523	-0.8663882313	-2.0091121416	 0.231331
H	 3.9072431076	 1.2477010159	-2.2551300291	 0.194595
98.6464	156.0007	202.2813	235.1298	254.0378	366.7294	420.404	546.1561	572.9262	610.7359	650.6353	657.3395	783.1594	848.348	887.4797	926.7532	983.3254	995.071	1048.7164	1102.6595	1114.4814	1144.7736	1252.9783	1273.2483	1300.271	1361.9403	1380.6729	1412.3932	1476.4617	1496.7559	1505.2842	1507.3482	2237.6167	3022.1769	3040.1714	3062.348	3107.8143	3108.71	3119.7168	3200.3937	3484.4965	3503.121
CCC1(CN1)C#C	CC[C@]1(CN1)C#C	
InChI=1S/C6H9N/c1-3-6(4-2)5-7-6/h1,7H,4-5H2,2H3	InChI=1S/C6H9N/c1-3-6(4-2)5-7-6/h1,7H,4-5H2,2H3/t6-/m0/s1
