12
gdb 3116	5.99438	2.27301	1.94738	4.5933	55.81	-0.2627	-0.0086	0.2541	650.329	0.090625	-323.338627	-323.33283	-323.331885	-323.368166	21.459	
N	 0.0513941953	-1.1181359026	 0.0363795729	-0.342865
C	 0.0464490735	 0.0388325525	 0.0324730491	 0.225349
C	 0.0493634421	 1.4661317819	 0.0109238516	 0.348756
C	 0.2717007374	 2.320832301	-1.2068861768	-0.323337
C	 1.1815143625	 2.4876404647	-0.0161196875	-0.16963
C	 0.4158657037	 3.1470715116	 1.1254558323	-0.089427
O	-0.673635597	 2.1851092304	 1.010244434	-0.31019
H	 0.7201766055	 1.8177472326	-2.0568276738	 0.145281
H	-0.4823412092	 3.0661540883	-1.4428780988	 0.136011
H	 2.2483157557	 2.3209898868	-0.0599298423	 0.130273
H	 0.9066191041	 3.0472572108	 2.0984589877	 0.129169
H	 0.0745137364	 4.1766726219	 0.9765765115	 0.12061
160.7539	182.9743	344.6589	421.6538	508.6538	557.3108	613.7483	754.916	847.658	868.202	938.5366	977.2399	988.3136	1010.2456	1028.539	1083.2003	1124.7831	1152.2692	1180.8568	1280.3868	1337.7329	1368.4089	1470.632	1515.7362	2350.7154	3042.772	3097.2518	3125.1252	3219.356	3227.1908
N#CC12CC1CO2	N#C[C@]12C[C@H]1CO2	
InChI=1S/C5H5NO/c6-3-5-1-4(5)2-7-5/h4H,1-2H2	InChI=1S/C5H5NO/c6-3-5-1-4(5)2-7-5/h4H,1-2H2/t4-,5+/m0/s1
