12
gdb 2507	3.38988	2.26591	1.43044	3.9215	55.24	-0.2788	-0.0227	0.2562	800.764	0.089961	-319.556235	-319.548778	-319.547834	-319.58802	25.031	
C	 0.1137614443	 1.4655376332	 0.0813653089	-0.335721
N	-0.1471666016	 0.0424401102	-0.1376528424	-0.267082
C	 0.6339659756	-0.5409702383	-1.2164526306	-0.242173
C	 2.106564256	-0.4998576588	-1.0005215057	 0.287836
N	 3.2348071814	-0.4026728758	-0.7722121876	-0.306162
C	 0.2033029601	-1.9282134331	-1.4640039105	 0.307408
N	-0.1421710828	-3.0126912393	-1.653155093	-0.293672
H	 1.1649827982	 1.7006628815	 0.3050669818	 0.13615
H	-0.1840976069	 2.0275185151	-0.8101084256	 0.138141
H	-0.5062657214	 1.8045032006	 0.9138247107	 0.144286
H	 0.001128227	-0.4875429941	 0.7148360979	 0.2496
H	 0.4289460902	 0.0356332887	-2.129059634	 0.18139
102.8587	136.0217	164.0348	190.8253	255.7846	354.9861	382.103	518.5285	578.0247	600.8469	742.9577	882.8809	984.2055	1015.7518	1135.904	1157.4932	1191.1587	1308.1463	1324.3237	1459.1349	1487.4018	1494.8052	1519.9064	2353.0571	2378.4839	2996.503	3028.8848	3078.2962	3129.6175	3535.2025
CNC(C#N)C#N	CNC(C#N)C#N	
InChI=1S/C4H5N3/c1-7-4(2-5)3-6/h4,7H,1H3	InChI=1S/C4H5N3/c1-7-4(2-5)3-6/h4,7H,1H3
