16
gdb 2471	4.20676	2.74344	2.57129	3.2915	59.45	-0.2441	0.0709	0.315	623.1732	0.139913	-325.766177	-325.760428	-325.759483	-325.795341	23.537	
O	-0.4636762537	 1.1726477547	 0.8530632231	-0.440447
C	-0.0060430906	 0.0982918736	 0.0537600437	 0.116882
C	 0.927710476	-0.8576903295	 0.8483209111	-0.230187
C	-0.0181761062	-1.8849103137	 1.4417869085	-0.022821
N	-1.2291714777	-1.2639725852	 2.0358465858	-0.354474
C	-1.2904247649	-1.8570080652	 0.6758699712	-0.022821
C	-1.1752352268	-0.8115696426	-0.4176901777	-0.230187
H	-0.9211623948	 0.7513046614	 1.5976359449	 0.285252
H	 0.5133981403	 0.5551661859	-0.7924298923	 0.077103
H	 1.6367563147	-1.3622597963	 0.1807116966	 0.096667
H	 1.4976305442	-0.2981678773	 1.5950575495	 0.111068
H	 0.3627119213	-2.7977451641	 1.8880395928	 0.085864
H	-1.6483662031	-1.8992469276	 2.709018226	 0.234502
H	-1.8920830252	-2.7482947192	 0.5306110909	 0.085864
H	-2.0833299058	-0.219632976	-0.5607461638	 0.111068
H	-0.9331295279	-1.305898219	-1.3664065203	 0.096667
202.2152	301.9308	402.8931	434.6432	438.141	610.2587	648.0298	771.2456	793.3656	823.86	850.7806	880.3156	896.4215	951.2822	953.3396	976.321	1049.112	1075.5803	1105.3215	1110.1959	1157.4018	1176.8234	1216.9345	1252.3406	1257.0366	1311.1251	1312.5295	1348.2395	1378.3529	1423.6085	1468.4528	1471.6741	1485.7233	3036.1668	3038.5773	3078.9871	3099.0892	3100.3289	3159.0696	3169.9853	3512.4769	3684.4205
OC1CC2NC2C1	O[C@H]1C[C@H]2N[C@H]2C1	
InChI=1S/C5H9NO/c7-3-1-4-5(2-3)6-4/h3-7H,1-2H2	InChI=1S/C5H9NO/c7-3-1-4-5(2-3)6-4/h3-7H,1-2H2/t3-,4+,5-
