10
gdb 3830	5.80569	2.85177	1.91239	1.6423	54.9	-0.2522	-0.086	0.1662	596.6744	0.066223	-355.442748	-355.436965	-355.436021	-355.472523	20.605	
N	-0.0716787856	 1.3275493852	 0.1401477187	-0.496565
C	-0.0809818693	 0.0652436874	-0.0164329646	 0.389079
C	-1.2390269494	-0.7796077964	-0.0798612345	-0.213882
C	-1.0796801648	-2.1063334211	-0.2509871117	 0.122999
O	 0.0915835422	-2.7230935466	-0.3702895397	-0.260374
N	 1.344962757	-1.8293622177	-0.3040201289	 0.048779
N	 1.1832220391	-0.6464211291	-0.1507401075	-0.113266
H	 0.8891398694	 1.6740172036	 0.1485638806	 0.236214
H	-2.2224333689	-0.34142718	 0.0103395393	 0.136012
H	-1.9123272696	-2.8036040752	-0.3077375517	 0.151004
79.2906	283.8188	366.6811	418.2403	431.0637	522.7977	657.4238	748.9005	781.7408	819.3051	906.1251	963.8282	980.8791	1024.1171	1123.3098	1248.1934	1306.5098	1428.8339	1617.8515	1731.0229	1742.2428	3166.605	3244.659	3475.0524
N=C1C=CON=N1	[NH]C1=N[N]OC=C1	
InChI=1S/C3H3N3O/c4-3-1-2-7-6-5-3/h1-2,4H	InChI=1S/C3H3N3O/c4-3-1-2-7-6-5-3/h1-2,4H
