13
gdb 3692	7.1025	2.16253	1.69276	3.5228	55.94	-0.262	-0.0009	0.2611	725.9997	0.101749	-340.669862	-340.66319	-340.662246	-340.700439	23.23	
C	 0.0425036386	 1.4474799826	 0.1111426604	-0.494823
C	-0.0040757333	-0.0272709199	-0.0359186173	 0.388183
N	-0.1432821832	-0.7293845505	-1.1104344774	-0.262687
N	-0.1235024878	-2.0713702289	-0.7106645333	-0.262687
C	 0.0259883118	-2.0671169226	 0.5717398963	 0.388183
C	 0.1112872065	-3.2192002801	 1.5013176014	-0.494823
O	 0.1103022023	-0.804164167	 1.0788214332	-0.193639
H	 0.9906354322	 1.7680202801	 0.5544231033	 0.150252
H	-0.0632728871	 1.9021473884	-0.8741240446	 0.165644
H	-0.7649261624	 1.8030638479	 0.7590730726	 0.150251
H	 1.0641148751	-3.2191437718	 2.0401282192	 0.150252
H	-0.6914593722	-3.184085061	 2.244662457	 0.150251
H	 0.0258683895	-4.1415039873	 0.9262339591	 0.165644
133.7918	143.2804	188.8407	260.3137	324.9751	406.0434	632.1291	686.466	692.7845	741.5455	947.5665	997.5708	1013.313	1041.0249	1067.9103	1074.3815	1087.5959	1230.465	1364.5154	1409.8069	1425.2754	1475.3096	1475.549	1477.9149	1484.5631	1619.459	1638.2763	3047.5273	3047.9262	3104.4198	3104.5942	3158.7664	3158.7864
CC1=NN=C(C)O1	Cc1nnc(C)o1	
InChI=1S/C4H6N2O/c1-3-5-6-4(2)7-3/h1-2H3	InChI=1S/C4H6N2O/c1-3-5-6-4(2)7-3/h1-2H3
