16
gdb 2187	3.95612	2.4364	1.71093	3.7455	61.29	-0.2416	0.039	0.2807	759.1269	0.136275	-325.809558	-325.801964	-325.80102	-325.841179	27.378	
C	-0.0636556574	 1.582600257	-0.1219551369	-0.396473
C	 0.0343652922	 0.0688859254	 0.0001069425	 0.059183
N	 1.0809520192	-0.5615115449	-0.8182517268	-0.334899
C	 1.7625673659	-1.1420559699	 0.2230029147	 0.431509
O	 2.7473125216	-1.8304662451	 0.2747434196	-0.368678
C	 0.7605426455	-0.5537263347	 1.249080865	-0.161711
C	 1.3419460371	 0.3488848996	 2.3283679766	-0.405981
H	 0.9084262395	 2.0602736548	 0.0255328178	 0.12556
H	-0.4309012078	 1.8652667384	-1.1144231529	 0.118156
H	-0.765553685	 1.9840287658	 0.616371139	 0.123567
H	-0.9522007701	-0.3806066168	-0.1688825168	 0.082428
H	 1.2023614316	-0.6368388071	-1.8179326071	 0.244956
H	 0.1626780493	-1.3500902887	 1.7031008453	 0.100542
H	 1.9663424231	 1.1419626206	 1.9076725706	 0.124915
H	 0.5536799378	 0.8158094599	 2.9276997239	 0.117839
H	 1.9714475777	-0.2422684042	 2.9999550455	 0.139089
69.9974	191.6277	196.1051	219.7928	251.2494	339.4305	408.7825	496.4756	518.7097	688.2262	736.9166	761.0851	829.1213	896.8912	1003.0239	1043.5633	1066.8447	1076.8036	1149.2256	1157.7849	1190.0812	1207.6568	1293.9977	1349.8961	1383.615	1389.8415	1408.2708	1415.6879	1483.5554	1489.9536	1499.5824	1504.6825	1890.0807	3020.1927	3035.2171	3040.6115	3066.5699	3100.0065	3107.538	3114.3216	3123.3596	3601.5129
CC1NC(=O)C1C	C[C@H]1NC(=O)[C@H]1C	
InChI=1S/C5H9NO/c1-3-4(2)6-5(3)7/h3-4H,1-2H3,(H,6,7)	InChI=1S/C5H9NO/c1-3-4(2)6-5(3)7/h3-4H,1-2H3,(H,6,7)/t3-,4+/m0/s1
