19
gdb 2211	3.39429	3.08162	2.18688	0.1272	70.47	-0.2572	0.0843	0.3415	714.1382	0.172445	-273.765811	-273.758822	-273.757877	-273.797156	27.046	
C	-0.2154165384	 1.53838184	 0.0996892604	-0.492967
C	 0.039696478	 0.0497384647	 0.0126810476	 0.397811
C	-1.1859070741	-0.8999430517	 0.1608351344	-0.275749
C	-0.4400039589	-1.7093654405	 1.2645747221	-0.215362
C	 0.7976383375	-0.787558811	 1.1185297405	-0.057918
C	 1.8287346468	-1.2499348777	 0.0574671015	-0.21536
C	 1.0748100373	-0.4422148176	-1.0420614887	-0.275751
H	 0.7222927711	 2.1028047989	 0.1614264942	 0.109473
H	-0.7584454431	 1.8963643627	-0.78452599	 0.113177
H	-0.8169692613	 1.7911345805	 0.9805604478	 0.109474
H	-2.082786855	-0.3925753216	 0.528060256	 0.094157
H	-1.4587297069	-1.4539195302	-0.7425836764	 0.09079
H	-0.9209866129	-1.6448938514	 2.2439089124	 0.096997
H	-0.260238795	-2.7667709766	 1.047502219	 0.092438
H	 1.1946031402	-0.3432862431	 2.0337168796	 0.054406
H	 2.8415659684	-0.882871091	 0.2419507482	 0.096996
H	 1.8860276269	-2.3321597793	-0.0943519051	 0.092437
H	 0.6574229983	-1.0255384072	-1.8685050952	 0.090791
H	 1.672534751	 0.3677786321	-1.4702023581	 0.094158
31.3359	230.377	235.0735	333.5113	361.1614	372.555	605.1094	623.1297	734.5993	749.574	830.6345	853.6925	877.3207	893.0652	933.4424	954.4671	964.4992	1022.0026	1030.9962	1040.6624	1134.2129	1155.5816	1183.1115	1211.9832	1233.6716	1239.8017	1243.5576	1255.0553	1273.8038	1287.5643	1311.1163	1337.3759	1409.3702	1470.4578	1481.0533	1484.826	1491.3563	1492.7642	1502.8863	3012.1183	3041.1938	3042.9733	3049.4772	3051.8643	3074.3974	3077.0665	3081.4356	3085.4173	3089.0105	3103.3193	3109.4256
CC12CCC1CC2	C[C@]12CC[C@H]1CC2	
InChI=1S/C7H12/c1-7-4-2-6(7)3-5-7/h6H,2-5H2,1H3	InChI=1S/C7H12/c1-7-4-2-6(7)3-5-7/h6H,2-5H2,1H3/t6-,7+
