19
gdb 4014	3.7898	1.01894	0.86667	1.49	71.4	-0.254	-0.001	0.253	1361.5638	0.163628	-402.158833	-402.149256	-402.148312	-402.19348	34.273	
C	 0.1131981958	 1.5841231343	-0.0933152088	-0.379168
C	-0.0241864552	 0.0600151557	-0.0588931081	-0.170565
C	 0.7213653415	-0.62366054	-1.2210716961	-0.26822
C	 0.626451421	-2.124667284	-1.1815086054	 0.341091
C	 1.3049473021	-2.9022926333	-0.0639970382	-0.136222
O	 2.2389469249	-3.8483851801	-0.5472680337	-0.419384
N	-0.0360202409	-2.6792497498	-2.1237278291	-0.173508
O	-0.083376402	-4.0887947351	-1.9659053383	-0.415082
H	 1.1626268074	 1.8894933438	-0.0177018865	 0.117147
H	-0.2847698424	 1.9956906325	-1.0271772295	 0.119313
H	-0.4300641995	 2.0492828216	 0.7348053816	 0.115633
H	 0.3523194739	-0.3184588164	 0.8998019739	 0.103451
H	-1.0831862507	-0.2206301456	-0.1057870856	 0.109449
H	 0.3184557786	-0.2728323776	-2.1760756432	 0.117198
H	 1.7820276395	-0.3379976381	-1.1863161552	 0.111993
H	 1.8627109604	-2.2153338329	 0.5783619026	 0.109532
H	 0.5274111708	-3.3763855131	 0.5566691431	 0.110051
H	 1.7397181419	-4.4291928927	-1.1348782344	 0.296575
H	-0.564546987	-4.3654441393	-2.7521427591	 0.310715
73.0655	84.9145	103.0818	158.1908	243.3425	255.0679	304.3718	332.5994	348.9232	378.4217	430.677	513.5149	576.3392	713.5148	753.1625	831.7249	875.7765	895.5873	955.6378	971.3812	1044.3513	1077.7493	1105.4182	1116.5437	1207.0654	1254.0996	1277.0566	1306.1774	1326.3654	1369.3756	1379.8427	1396.5477	1412.8355	1459.8738	1473.9467	1491.6892	1492.8333	1498.856	1508.7146	1724.8279	2974.9571	3014.2946	3026.8498	3032.2208	3057.1988	3086.5307	3089.5466	3101.988	3105.8854	3780.5293	3831.016
CCCC(CO)=NO	CCCC(=NO)CO	
InChI=1S/C5H11NO2/c1-2-3-5(4-7)6-8/h7-8H,2-4H2,1H3	InChI=1S/C5H11NO2/c1-2-3-5(4-7)6-8/h7-8H,2-4H2,1H3
