12
gdb 2873	7.87148	1.93978	1.59552	4.9261	57.54	-0.2471	-0.0482	0.1989	724.7431	0.092675	-319.576017	-319.569974	-319.56903	-319.605969	21.489	
N	 0.1095405136	-1.1071492522	-0.1194518021	-0.314841
C	 0.0037807361	 0.0418344783	-0.058413828	 0.26488
C	-0.0704405956	 1.4772408632	 0.0061893768	 0.283317
N	-1.1648844154	 2.1264538853	-0.1220051152	-0.286398
C	-0.7979238544	 3.546407807	 0.0386589095	-0.168291
C	 0.753704562	 3.5994612492	-0.0254661824	-0.188237
N	 1.089149002	 2.1962704714	 0.2651669073	-0.348018
H	-1.2812917557	 4.152958438	-0.7307991238	 0.127723
H	-1.1711304415	 3.8908757061	 1.0111496235	 0.130072
H	 1.1103215993	 3.8957779423	-1.020852678	 0.116189
H	 1.1916777973	 4.2721773957	 0.7152187012	 0.12584
H	 1.9663087421	 1.8223607157	-0.0674634287	 0.257764
149.7449	176.4236	184.3135	431.4125	513.1882	559.7164	582.9995	698.4697	743.5035	860.7449	918.4973	988.3709	1008.8579	1042.5077	1105.8023	1199.7883	1237.0141	1253.3439	1314.2992	1342.5416	1458.405	1490.8304	1525.6588	1675.1028	2366.77	3014.5446	3033.8849	3093.0597	3103.4395	3606.374
N#CC1=NCCN1	N#C[C]1[N]CCN1	
InChI=1S/C4H5N3/c5-3-4-6-1-2-7-4/h1-2H2,(H,6,7)	InChI=1S/C4H5N3/c5-3-4-6-1-2-7-4/h1-2H2,(H,6,7)
