16
gdb 2531	3.60536	1.88102	1.32418	3.2293	60.84	-0.283	0.0266	0.3096	909.2744	0.136003	-325.794835	-325.786562	-325.785618	-325.827489	28.763	
C	-0.0490070088	 1.563269155	 0.0286781387	-0.394902
C	 0.0123986135	 0.0346713194	-0.0003819457	-0.186988
C	 0.7468487945	-0.5341527596	-1.23271321	-0.138998
C	 0.8766106158	-2.0763952799	-1.1765496666	-0.069446
O	 1.5912393498	-2.6081655004	-2.2665312206	-0.416657
C	 0.0753810063	-0.1648733752	-2.4827572594	 0.264701
N	-0.4622877733	 0.0734837286	-3.4787070683	-0.334324
H	 0.9551627408	 2.0003642879	 0.0361731541	 0.121845
H	-0.5790176523	 1.9549553844	-0.8448521424	 0.144004
H	-0.572065668	 1.9117107327	 0.9236397017	 0.123549
H	 0.5334007569	-0.336330438	 0.8899279146	 0.110201
H	-1.0008427554	-0.3821768337	 0.0319010157	 0.118398
H	 1.762098046	-0.1199040885	-1.2761789965	 0.132989
H	 1.4424046008	-2.3385194704	-0.2773703524	 0.120976
H	-0.1269285335	-2.5182901656	-1.0830723962	 0.105875
H	 1.0720365469	-2.4643720767	-3.0661597967	 0.298777
91.8916	108.5054	163.5374	177.0357	223.5838	274.4519	376.6532	384.6623	417.2681	552.3119	608.1342	755.0637	827.067	924.1083	987.9639	1008.2305	1071.7174	1090.0135	1130.5027	1141.1515	1209.181	1267.1191	1296.2493	1366.6476	1369.8327	1394.3116	1417.2585	1424.3769	1486.0655	1500.0067	1503.3578	1507.6217	2347.8416	2992.8946	3033.3428	3038.836	3041.9142	3072.8825	3088.5895	3109.9214	3117.3426	3798.7504
CCC(CO)C#N	CC[C@@H](CO)C#N	
InChI=1S/C5H9NO/c1-2-5(3-6)4-7/h5,7H,2,4H2,1H3	InChI=1S/C5H9NO/c1-2-5(3-6)4-7/h5,7H,2,4H2,1H3/t5-/m1/s1
