12
gdb 1164	2.95291	2.68369	1.95679	3.7367	51.27	-0.2775	-0.0577	0.2198	693.407	0.086816	-360.524422	-360.51665	-360.515706	-360.556462	26.498	
C	 0.1259107336	 1.5550144015	 0.2351379785	-0.408192
C	 0.0285044816	 0.0359602805	 0.0400721704	 0.103858
O	 0.7906792994	-0.5580532822	 1.0809312688	-0.431205
C	-1.4490137021	-0.3817246723	 0.2098634585	 0.134862
O	-2.1846418016	-0.7208275798	-0.6713452331	-0.216936
C	 0.5370819665	-0.3621685779	-1.285385535	 0.26823
N	 0.9657481358	-0.7003706138	-2.3029099616	-0.319381
H	 1.175976633	 1.8535427085	 0.2110890833	 0.159199
H	-0.4212950828	 2.0813660922	-0.5496211752	 0.154745
H	-0.2914651106	 1.8180751891	 1.2108818598	 0.142653
H	 0.8559848602	-1.5069269089	 0.9185938965	 0.304708
H	-1.7559525731	-0.3319265969	 1.2778746393	 0.10746
59.037	149.6405	188.6484	216.163	318.0172	324.9302	353.937	376.028	467.1229	581.5221	663.459	712.9092	902.136	966.7389	992.6824	1078.0906	1171.9269	1219.4884	1349.7093	1391.1061	1403.7714	1478.1329	1489.9182	1850.7916	2362.8169	2902.4571	3054.88	3136.5954	3149.3637	3795.8754
CC(O)(C=O)C#N	C[C@@](O)(C=O)C#N	
InChI=1S/C4H5NO2/c1-4(7,2-5)3-6/h3,7H,1H3	InChI=1S/C4H5NO2/c1-4(7,2-5)3-6/h3,7H,1H3/t4-/m0/s1
