12
gdb 602	6.69318	2.83589	2.25456	1.7653	52.44	-0.2601	0.0209	0.281	570.9634	0.094333	-269.176979	-269.170664	-269.16972	-269.206571	22.566	
C	-0.0970973547	 1.523480261	-0.0842737667	-0.425204
C	-0.0285340176	 0.0288650481	 0.0729902023	 0.096775
O	 1.2338328628	-0.5974373928	-0.1430621676	-0.242544
C	 0.6873384362	-0.637094638	 1.1867148879	-0.146921
C	 1.3763625309	 0.0990995712	 2.2123205437	 0.343327
C	 1.9391751131	 0.6887823191	 3.0959959553	-0.439144
H	 0.7343041678	 2.0079148522	 0.4316227281	 0.142352
H	-0.0580961416	 1.7933123608	-1.1445433955	 0.131545
H	-1.0375303535	 1.905490921	 0.326808826	 0.12492
H	-0.8688519838	-0.5268705256	-0.3486934909	 0.095264
H	 0.341716224	-1.6252459635	 1.490334386	 0.115458
H	 2.4435290365	 1.2114670666	 3.8710110113	 0.204171
146.5604	175.2874	220.0946	336.777	399.0735	550.8537	584.9871	624.2005	668.7747	774.7987	817.7725	930.9079	978.6254	1051.2688	1085.7396	1164.0903	1170.78	1284.987	1375.9564	1413.0215	1446.799	1485.4416	1497.0554	2239.0691	3041.4301	3085.5087	3105.072	3110.6604	3139.5076	3502.1118
CC1OC1C#C	C[C@H]1O[C@H]1C#C	
InChI=1S/C5H6O/c1-3-5-4(2)6-5/h1,4-5H,2H3	InChI=1S/C5H6O/c1-3-5-4(2)6-5/h1,4-5H,2H3/t4-,5+/m1/s1
