19
gdb 1891	4.48326	1.94944	1.64679	1.6282	66.54	-0.2545	0.0659	0.3204	833.71	0.17255	-310.937644	-310.930087	-310.929143	-310.969737	28.622	
C	-0.0224146435	 1.5451400718	 0.0027073659	-0.406949
C	 0.084783802	 0.0212737048	-0.0067744078	 0.065907
C	 0.8885513745	-0.566249115	-1.1832586572	-0.216682
C	 1.1866863773	-1.99843929	-0.7179363965	-0.231777
C	 1.5573545285	-1.8421144711	 0.7745632214	 0.149047
O	 2.9633380605	-1.7249319408	 0.9778445249	-0.43891
C	 0.779200081	-0.5773414171	 1.2436149114	-0.246497
H	 0.9712741483	 2.0062677417	 0.0550879627	 0.108149
H	-0.5157199046	 1.9178439651	-0.9015189255	 0.111444
H	-0.5971297555	 1.9007031941	 0.8646505881	 0.113745
H	-0.9301053181	-0.3956595755	-0.0671414922	 0.070468
H	 0.3529775218	-0.5162656608	-2.1358824797	 0.094678
H	 1.8236124594	-0.0016484469	-1.3153542181	 0.08214
H	 0.2794767022	-2.6081528653	-0.8121272183	 0.095246
H	 1.9838110098	-2.5034305437	-1.2696586684	 0.099538
H	 1.2813190449	-2.7287560364	 1.3509670933	 0.08149
H	 3.2704319525	-0.9540311516	 0.4888191093	 0.273259
H	 1.5025480778	 0.1303694433	 1.6656447776	 0.096409
H	 0.0646849613	-0.8018218466	 2.0409029693	 0.099294
30.16	186.9178	243.2737	281.7582	297.5555	391.9098	430.8049	435.3188	536.0492	664.1867	800.5026	817.5064	860.3769	901.3291	913.9725	960.3054	986.9993	1012.8952	1025.6341	1071.9693	1112.5636	1144.2386	1158.9206	1203.8746	1240.7305	1271.5487	1296.1386	1316.5809	1322.2247	1341.5179	1353.9726	1380.733	1410.4032	1436.8385	1481.378	1487.6702	1496.3318	1498.5629	1504.2917	2996.3519	3008.375	3022.7321	3032.6192	3038.9377	3073.0253	3081.8985	3087.4508	3093.4471	3094.5353	3099.8946	3803.5475
CC1CCC(O)C1	C[C@H]1CC[C@@H](O)C1	
InChI=1S/C6H12O/c1-5-2-3-6(7)4-5/h5-7H,2-4H2,1H3	InChI=1S/C6H12O/c1-5-2-3-6(7)4-5/h5-7H,2-4H2,1H3/t5-,6+/m0/s1
