15
gdb 1629	4.36243	1.90799	1.41825	2.3282	54.12	-0.2626	-0.0368	0.2258	832.8745	0.122273	-382.796989	-382.788932	-382.787988	-382.82913	28.668	
C	 0.0507518208	 1.553714954	 0.0199394929	-0.412758
C	 0.0229379944	 0.0312083323	 0.0646503319	 0.105065
O	 0.6445718438	-0.4940326097	 1.2324007584	-0.430598
C	-1.4245257052	-0.5147463495	-0.0451885346	 0.037517
O	-2.0802197837	-0.0043382722	-1.1709873379	-0.434204
C	-1.4178134421	-2.0308142042	-0.0858710125	 0.135881
O	-1.9613307327	-2.6315330653	-0.9835545183	-0.267167
H	 1.0820999799	 1.9140813346	 0.0646434522	 0.125472
H	-0.4200032304	 1.9162760061	-0.8960462946	 0.151195
H	-0.5021439971	 1.9738793794	 0.8706494003	 0.106975
H	 0.5998818783	-0.3678934693	-0.7781067376	 0.103631
H	 0.3435118416	 0.0250441682	 1.986387011	 0.283592
H	-1.9509779653	-0.222784579	 0.8850259557	 0.080027
H	-2.3879719099	-0.7831784817	-1.6639402446	 0.296214
H	-0.8871648124	-2.5448304738	 0.7346373776	 0.119156
83.8521	123.521	206.746	242.5278	297.2271	318.1075	346.3817	386.9077	441.479	470.6874	515.7248	750.1823	823.5655	896.8838	957.1939	980.5362	1071.2403	1120.0826	1135.7927	1173.8208	1243.0563	1285.6357	1325.8471	1366.5365	1380.3095	1397.3571	1409.2483	1442.5792	1488.3453	1495.4355	1805.017	2915.7009	2991.6316	3022.6031	3047.0054	3102.461	3141.6334	3666.8994	3802.0767
CC(O)C(O)C=O	C[C@@H](O)[C@@H](O)C=O	
InChI=1S/C4H8O3/c1-3(6)4(7)2-5/h2-4,6-7H,1H3	InChI=1S/C4H8O3/c1-3(6)4(7)2-5/h2-4,6-7H,1H3/t3-,4+/m1/s1
