10
gdb 3849	6.01629	2.85945	1.93823	2.2291	53.47	-0.2659	-0.1023	0.1636	590.5461	0.066811	-355.446449	-355.440906	-355.439962	-355.475873	19.975	
N	-0.0710908332	 1.2928014501	 0.2906298328	-0.51891
C	-0.0419114944	 0.0701079971	-0.0487713101	 0.425378
O	 1.1249118525	-0.5780607689	-0.3769730426	-0.294467
N	 1.14332584	-2.0007967581	-0.7701423084	 0.060629
N	 0.0853333357	-2.6127047937	-0.8018892676	-0.097983
C	-1.15205456	-2.0279161308	-0.4818026744	 0.013816
C	-1.2434583764	-0.7447542119	-0.1176611055	-0.129082
H	 0.8666159613	 1.6975124943	 0.2809096664	 0.234604
H	-1.9923215429	-2.7043619973	-0.559265329	 0.152726
H	-2.1822081727	-0.267934361	 0.1342518583	 0.153289
107.2488	287.5699	331.8008	500.78	529.0237	602.0258	684.4623	733.4228	849.169	858.9179	887.1917	960.8588	996.2063	1011.0174	1097.8467	1198.0541	1305.1304	1418.2812	1614.3893	1673.6033	1734.7648	3222.3374	3240.4022	3482.0229
N=C1ON=NC=C1	[NH]C1=CC=N[N]O1	
InChI=1S/C3H3N3O/c4-3-1-2-5-6-7-3/h1-2,4H	InChI=1S/C3H3N3O/c4-3-1-2-5-6-7-3/h1-2,4H
