16
gdb 1290	4.78268	1.74591	1.36145	6.8096	57.27	-0.2369	0.0368	0.2737	872.2097	0.137916	-362.952198	-362.944708	-362.943764	-362.984179	26.844	
N	-0.2838193276	 0.3858194381	 0.748594876	-0.505802
H	-0.208015619	-0.4286137885	 2.2866764813	 0.317623
H	 0.6616242469	 0.2309919677	 0.4087035007	 0.251104
H	-0.9121883153	 0.0778922572	 0.0138473608	 0.249049
C	-0.4886820787	 1.8137145228	 1.0587567011	-0.157325
C	 0.1277780177	 2.1952175175	 2.4088846383	-0.201351
C	-0.5457715264	 1.5653052332	 3.6496291532	-0.314277
C	-0.0404593363	 0.1931737409	 4.1141811617	 0.382813
O	 0.0362558465	-0.7692269316	 3.1897502596	-0.383096
O	 0.2502410926	-0.0167728541	 5.2649895325	-0.332309
H	-0.0859552601	 2.468737016	 0.2730506129	 0.102032
H	-1.5698341685	 1.9890141838	 1.0957236651	 0.118308
H	 1.2015314603	 1.9669501779	 2.4024484305	 0.112761
H	 0.0547097181	 3.2846849502	 2.4990045435	 0.113262
H	-0.4198390107	 2.2219407601	 4.5118901532	 0.131
H	-1.6269746597	 1.4813878685	 3.4717962601	 0.116209
73.518	96.9156	229.0369	253.235	305.2228	333.9229	430.4627	480.2483	584.327	692.8586	793.0254	866.8298	882.8064	918.0726	958.1589	998.7351	1031.5571	1058.6714	1105.4619	1143.5989	1216.1585	1283.7273	1312.8962	1339.3408	1355.3014	1382.6586	1418.0629	1471.1237	1478.9923	1484.5655	1505.1542	1653.5873	1846.7856	2998.7629	3021.1054	3030.3446	3062.6211	3075.3873	3117.9232	3173.6402	3496.6283	3576.8094
[NH3+]CCCC([O-])=O	NCCCC(=O)O	
InChI=1S/C4H9NO2/c5-3-1-2-4(6)7/h1-3,5H2,(H,6,7)	InChI=1S/C4H9NO2/c5-3-1-2-4(6)7/h1-3,5H2,(H,6,7)
