13
gdb 3493	4.13968	3.94818	3.8817	1.7735	50.63	-0.2414	0.0927	0.3341	483.0398	0.104828	-344.437158	-344.432761	-344.431817	-344.465055	18.385	
C	-0.0169131103	 1.5894358391	 0.0106933045	-0.232809
C	 1.4945654271	 1.7689544869	-0.0045510597	-0.171653
C	 2.0128851624	 0.5410645296	 0.7382586577	 0.046487
O	 0.8971768659	-0.2437474432	 1.1194231014	-0.248392
C	 0.0629587594	 0.0467134772	 0.0026205196	 0.151249
O	 0.8731968031	-0.2331961247	-1.1343490088	-0.248392
C	 1.9968426972	 0.5481203114	-0.7696763993	 0.046488
H	-0.4943361525	 1.9706067545	 0.9155480986	 0.114419
H	-0.5134452357	 1.9790139149	-0.8801887324	 0.114418
H	 1.9986763315	 2.7243113085	-0.0054446369	 0.099407
H	 2.8698988794	 0.480326665	 1.3916630554	 0.113815
H	-0.837181009	-0.560880444	 0.0093534423	 0.101149
H	 2.8397555414	 0.4935837248	-1.4417052415	 0.113815
432.0027	563.5826	594.9273	715.1579	739.8676	797.161	798.4476	832.3677	859.8964	920.1575	962.0421	969.7494	1013.4912	1016.7741	1034.5472	1038.9218	1040.5662	1089.1657	1094.836	1157.848	1220.8606	1234.8186	1271.0088	1313.2609	1348.2422	1373.6429	1476.0134	3078.6306	3137.5717	3182.7021	3225.4092	3235.2512	3245.3977
C1C2C3OC1OC23	C1[C@H]2[C@H]3O[C@@H]1O[C@@H]23	
InChI=1S/C5H6O2/c1-2-4-5(2)7-3(1)6-4/h2-5H,1H2	InChI=1S/C5H6O2/c1-2-4-5(2)7-3(1)6-4/h2-5H,1H2/t2-,3+,4+,5-
