15
gdb 3309	5.17914	2.24554	2.09502	2.7354	60.65	-0.2393	-0.0184	0.2209	674.8847	0.125221	-308.495275	-308.488933	-308.487989	-308.525721	23.516	
O	-0.7759238655	 0.9930560575	-0.3051266238	-0.250916
C	 0.2291674071	 0.9698842746	 0.3619979115	 0.152274
C	 1.3882385454	 1.9152761193	 0.2111232272	-0.082899
C	 1.325471992	 3.0251525433	-0.8814452136	-0.253182
C	 1.4084065741	 4.0911711194	 0.2206319084	-0.031013
C	 0.2694103705	 3.9381307554	 1.1856019134	-0.275048
C	 1.4518402899	 3.0133489115	 1.3057533774	-0.073133
H	 0.340443736	 0.2400538476	 1.1988228235	 0.070665
H	 2.3189215931	 1.3393831541	 0.179321881	 0.09164
H	 2.2004471295	 3.0043188172	-1.5336551943	 0.105969
H	 0.4195390991	 3.0311262727	-1.4922270349	 0.121883
H	 1.9904700095	 5.0024510666	 0.1634304239	 0.089654
H	 0.2086129314	 4.6964354719	 1.9594210455	 0.114328
H	-0.6938407912	 3.5662482822	 0.8456643837	 0.128709
H	 2.0571252292	 2.9596519268	 2.2018814911	 0.091069
73.8012	174.553	233.8996	348.196	444.6164	643.624	657.6324	772.3487	790.8028	815.4478	911.3043	938.3709	960.4428	975.929	1015.3484	1023.1671	1062.8697	1091.0772	1092.1845	1109.5072	1144.6264	1199.9576	1216.3522	1256.824	1287.0243	1346.0405	1358.036	1422.6144	1479.3025	1495.7045	1818.8893	2850.8648	3057.8781	3071.8987	3116.2575	3125.5107	3183.1181	3191.1885	3208.4088
O=CC1CC2CC12	O=C[C@H]1C[C@H]2C[C@@H]12	
InChI=1S/C6H8O/c7-3-5-1-4-2-6(4)5/h3-6H,1-2H2	InChI=1S/C6H8O/c7-3-5-1-4-2-6(4)5/h3-6H,1-2H2/t4-,5+,6+/m0/s1
