14
gdb 290	5.07057	3.5194	2.14443	3.6689	50.94	-0.2306	0.0604	0.2909	591.7927	0.119711	-303.785832	-303.778493	-303.777549	-303.816841	25.1	
C	 0.1515820541	 1.4229302365	 0.0233005449	-0.338442
N	-0.0310308504	-0.0160975395	 0.0023279801	-0.086632
C	-0.0451746857	-0.7052791571	 1.2760856546	-0.346295
C	-0.1301927623	-0.653896959	-1.2136820487	 0.442914
N	-0.1864339972	-2.0481377927	-1.1522026224	-0.566906
O	-0.2141217457	-0.0618699889	-2.2772080948	-0.405944
H	 1.1105685864	 1.6944841122	 0.4848538532	 0.113633
H	 0.1304370622	 1.7815162514	-1.0044223358	 0.17091
H	-0.6507978973	 1.9090585584	 0.592758027	 0.116995
H	-0.6493142381	-1.6128557013	 1.2148170206	 0.145299
H	 0.9623572796	-0.9697334095	 1.6337076701	 0.115792
H	-0.5008623164	-0.056685247	 2.0313218244	 0.131982
H	 0.3881039207	-2.513581509	-0.4659440499	 0.248419
H	-0.1001875897	-2.4441183045	-2.0766454533	 0.258277
97.1622	136.2568	150.3782	192.3439	320.0489	392.277	441.9187	512.7124	584.2613	606.3334	769.2851	781.9162	1030.5315	1088.3649	1104.389	1135.2701	1176.3459	1273.9189	1300.3886	1426.6599	1433.2981	1478.6302	1498.3582	1500.0096	1509.6533	1542.5785	1626.6565	1782.936	2981.2909	3006.358	3050.6923	3068.9409	3122.3575	3168.6508	3573.7692	3682.2884
CN(C)C(N)=O	CN(C)C(=O)N	
InChI=1S/C3H8N2O/c1-5(2)3(4)6/h1-2H3,(H2,4,6)	InChI=1S/C3H8N2O/c1-5(2)3(4)6/h1-2H3,(H2,4,6)
