14
gdb 814	6.54536	2.01636	1.5711	0.6622	61.44	-0.2347	0.011	0.2457	750.3356	0.113734	-324.550139	-324.543733	-324.542789	-324.580435	24.048	
O	-0.1635509481	 1.3308996034	 0.0078713558	-0.396092
N	 0.0041564254	-0.0674593294	 0.0025316475	-0.214747
C	-1.1198071713	-0.6601640125	 0.0085330756	 0.393533
C	-2.5027408286	-0.0357130428	 0.0201105375	-0.337085
C	-3.4035588178	-1.2461655838	 0.0232941008	-0.070907
C	-2.7213522353	-2.3909250625	 0.0151064763	-0.060764
C	-1.2264672576	-2.1765575957	 0.0047736454	-0.336697
H	 0.7471981057	 1.6438681642	 0.0025787318	 0.305161
H	-2.6366097749	 0.612567732	 0.8965108038	 0.133001
H	-2.6491518967	 0.6171921446	-0.8508467007	 0.132993
H	-4.4843391428	-1.1634425787	 0.0313969933	 0.096746
H	-3.1607458947	-3.3816687382	 0.015508494	 0.09685
H	-0.7432579974	-2.6161755573	-0.877412268	 0.129003
H	-0.7302603159	-2.6214739933	 0.8770194769	 0.129006
85.3417	232.9718	283.8068	382.1612	394.1535	498.451	505.1076	677.1389	697.5777	795.7838	821.4461	918.8029	949.5156	973.9119	980.3113	987.6209	1003.6131	1132.391	1135.8337	1179.0243	1206.9681	1286.2605	1300.9715	1367.9374	1404.8125	1458.5964	1466.8019	1686.3268	1762.2508	3019.6272	3022.1951	3039.0599	3044.3645	3189.0614	3213.5467	3819.7516
ON=C1CC=CC1	ON=C1CC=CC1	
InChI=1S/C5H7NO/c7-6-5-3-1-2-4-5/h1-2,7H,3-4H2	InChI=1S/C5H7NO/c7-6-5-3-1-2-4-5/h1-2,7H,3-4H2
