15
gdb 4503	3.66294	1.81164	1.23163	1.223	65.66	-0.1895	0.0265	0.216	954.9415	0.119834	-396.016535	-396.008445	-396.007501	-396.048743	29.318	
C	 0.0215419337	 1.4302260915	 0.0797774048	-0.488893
C	-0.0029378345	-0.0481658584	-0.0560075043	 0.368651
N	 0.0066684507	-0.7739872509	-1.1225473274	-0.327313
C	 0.008318823	-2.0962860602	-0.6654339574	 0.109952
N	 0.0271353747	-3.2560205282	-1.4727399809	-0.61234
C	-0.0126105789	-2.0806432637	 0.6924830182	 0.328898
N	-0.1140117594	-3.0711019702	 1.6543668348	-0.600675
O	-0.027388992	-0.783876398	 1.106984417	-0.205535
H	 0.9112598571	 1.7674055775	 0.6234172739	 0.138194
H	 0.0277791799	 1.8736359732	-0.9164308318	 0.152561
H	-0.8543965878	 1.7959487578	 0.6265946671	 0.140753
H	-0.8410308078	-3.354243295	-1.9930728803	 0.240502
H	 0.7674209806	-3.1944248549	-2.1662075054	 0.240446
H	 0.0270283203	-3.9774870949	 1.2232217021	 0.2623
H	 0.5261616204	-2.9435792056	 2.4300791697	 0.252502
112.6605	165.4916	184.4717	242.7567	265.8591	275.7186	293.5727	360.3428	518.5946	622.8099	662.2951	680.4189	695.4875	791.7501	840.7878	874.925	956.7292	1024.847	1062.9862	1088.7839	1181.0247	1231.8672	1245.529	1339.0832	1410.5491	1434.1134	1474.1743	1484.9607	1621.9972	1638.1406	1660.2949	1732.996	3035.7369	3086.2398	3152.6426	3479.2287	3516.167	3540.6937	3614.1008
CC1=NC(N)=C(N)O1	Cc1nc(N)c(N)o1	
InChI=1S/C4H7N3O/c1-2-7-3(5)4(6)8-2/h5-6H2,1H3	InChI=1S/C4H7N3O/c1-2-7-3(5)4(6)8-2/h5-6H2,1H3
