16
gdb 4546	3.97852	1.67187	1.18826	1.1093	68.72	-0.1611	0.0686	0.2297	980.7245	0.130642	-379.943228	-379.93459	-379.933646	-379.976293	31.198	
C	-0.0350390615	 1.4464830672	 0.0047603479	-0.341156
N	 0.0610883786	 0.0049059877	 0.0024096463	-0.041155
C	 0.0755626174	-0.8079745355	-1.1340751108	-0.201598
C	 0.1005573122	-2.1167867878	-0.7189497274	 0.263919
N	 0.2204628522	-3.2698111924	-1.521557476	-0.60457
C	 0.0812611945	-2.1197086206	 0.7124709643	-0.389997
C	 0.0518384648	-0.7987758313	 1.0991938803	 0.393905
O	 0.0116942859	-0.2082237509	 2.3241769966	-0.444436
H	 0.6893309428	 1.8721758476	-0.6965365199	 0.132084
H	-1.0379982189	 1.788264383	-0.2798384434	 0.12907
H	 0.1872655726	 1.8165396733	 1.0059187191	 0.155231
H	 0.0851500159	-0.3713301106	-2.1190134747	 0.095061
H	-0.0442702381	-3.0914362671	-2.4825452333	 0.234042
H	-0.3467026489	-4.0331025446	-1.1722996241	 0.235708
H	 0.1134662228	-2.980876686	 1.3624422776	 0.077767
H	 0.1121314377	-0.8956487921	 2.9886640773	 0.306125
63.6067	125.7996	189.7742	206.4982	227.7634	283.2297	311.8554	341.1706	509.4854	562.8201	591.3953	635.601	655.18	659.4458	691.41	792.9181	837.0977	1004.0653	1068.0875	1106.1284	1143.2487	1153.1376	1192.9975	1228.893	1307.0986	1363.9934	1438.1333	1457.8227	1491.1836	1512.064	1575.0094	1584.9591	1632.3162	1658.7889	3021.4767	3081.875	3150.695	3239.778	3264.5565	3520.8399	3608.5684	3854.5735
CN1C=C(N)C=C1O	Cn1cc(N)cc1O	
InChI=1S/C5H8N2O/c1-7-3-4(6)2-5(7)8/h2-3,8H,6H2,1H3	InChI=1S/C5H8N2O/c1-7-3-4(6)2-5(7)8/h2-3,8H,6H2,1H3
