17
gdb 2554	3.69485	1.75261	1.27766	2.8475	56.49	-0.2502	0.0631	0.3133	922.84	0.147544	-383.973315	-383.964834	-383.963889	-384.006032	30.153	
O	 0.1063284631	 1.4166872492	-0.1603088122	-0.42329
C	 0.022696607	-0.0093130975	-0.0422385607	-0.076561
C	-1.4214254076	-0.53228738	-0.0343237841	-0.029065
C	-2.17551179	-0.1390560737	-1.315772668	-0.055574
O	-2.374957815	 1.2537508885	-1.4373712543	-0.436505
C	-1.4363147923	-2.0472707923	 0.1660715142	-0.093685
O	-0.8332401323	-2.3388398588	 1.4202294828	-0.423589
H	-0.2190422305	 1.7966638092	 0.6629426211	 0.290927
H	 0.5518129748	-0.4001578982	-0.9197414337	 0.110424
H	 0.5537581159	-0.3576163039	 0.850090641	 0.120999
H	-1.9500435379	-0.0814428231	 0.8177340594	 0.083449
H	-1.6344978582	-0.5467752613	-2.1894324631	 0.077353
H	-3.1714833446	-0.5982560868	-1.3162865244	 0.098647
H	-1.5126044438	 1.6611038996	-1.2720536586	 0.284079
H	-2.4759313089	-2.4082714887	 0.1332898114	 0.093447
H	-0.8928957747	-2.5387338537	-0.6581339275	 0.089171
H	-0.8001445549	-3.2939999785	 1.5251655169	 0.289774
98.2289	120.582	157.2344	219.9459	244.5254	268.2719	311.5954	382.2517	403.6021	431.0884	558.2017	634.5197	847.8449	903.6285	935.9817	1037.4151	1043.3946	1073.8601	1095.7516	1104.4286	1127.7518	1194.9217	1230.207	1254.295	1284.8712	1310.6287	1356.5215	1393.6178	1401.0272	1423.0863	1456.8708	1479.2258	1503.2153	1514.3647	1524.1695	2933.4968	2962.4846	2993.659	3016.6216	3035.0573	3048.4135	3083.2169	3720.1543	3811.5089	3832.7508
OCC(CO)CO	OCC(CO)CO	
InChI=1S/C4H10O3/c5-1-4(2-6)3-7/h4-7H,1-3H2	InChI=1S/C4H10O3/c5-1-4(2-6)3-7/h4-7H,1-3H2
