11
gdb 4255	3.98213	2.10754	1.37815	5.1549	56.12	-0.2746	-0.066	0.2086	798.0616	0.072733	-434.584033	-434.577783	-434.576839	-434.615035	22.617	
N	-0.0666324042	 1.2749686108	-0.3852794675	-0.520709
C	-0.0044752135	 0.1184832764	 0.0906820273	 0.487173
O	 1.2030091485	-0.517915855	 0.3353860796	-0.224199
C	 1.2204010253	-1.7655973891	 0.849644008	 0.093477
C	 0.1194731602	-2.4585215769	 1.1513479779	-0.307136
C	-1.1821685768	-1.8558951978	 0.9215537322	 0.448813
O	-2.2565051756	-2.330231029	 1.1326466321	-0.306284
O	-1.1337667136	-0.5596009035	 0.3862522002	-0.22694
H	 0.8654199782	 1.6467220411	-0.5520728041	 0.244168
H	 2.2351285937	-2.121274636	 0.9816118656	 0.162572
H	 0.1624106079	-3.4559439011	 1.5620630186	 0.149064
74.1976	133.8875	374.2519	381.0288	509.7858	532.9377	561.8091	706.2916	737.1412	748.3151	821.7991	836.6376	894.0669	950.4127	978.4264	1025.1785	1079.8906	1174.5398	1292.4108	1313.2126	1419.6034	1689.0952	1787.3037	1884.0355	3219.3946	3258.6356	3541.791
N=C1OC=CC(=O)O1	[NH][C]1OC=CC(=O)O1	
InChI=1S/C4H3NO3/c5-4-7-2-1-3(6)8-4/h1-2,5H	InChI=1S/C4H3NO3/c5-4-7-2-1-3(6)8-4/h1-2,5H
