14
gdb 652	7.23422	3.33967	3.08029	1.993	53.28	-0.2338	0.0894	0.3232	501.501	0.120022	-270.359564	-270.354228	-270.353283	-270.387995	20.486	
C	-0.161475191	 1.612575865	-0.001393204	-0.441044
C	 0.0235953246	 0.1046772588	 0.0323732465	 0.059914
C	 1.1836259459	-0.6387287193	-0.6941994306	 0.041717
C	 2.1990280411	-0.1370560652	 0.3604151644	-0.226151
C	 0.917818515	-0.6317322281	 1.0736602597	 0.041726
O	 0.9180239434	-1.8098545888	 0.1744254497	-0.309946
H	 0.7705941436	 2.1663441903	 0.135975873	 0.11947
H	-0.5936616609	 1.9219387446	-0.9592160517	 0.123739
H	-0.8549487649	 1.9289507837	 0.7853231328	 0.12374
H	-0.9235566818	-0.4235330131	-0.1079407742	 0.082795
H	 1.3270909317	-0.8279184747	-1.7590364285	 0.089923
H	 3.0693770006	-0.7802451581	 0.4938181095	 0.108392
H	 2.4520262407	 0.9240362723	 0.3942633831	 0.095804
H	 0.741592012	-0.8125040974	 2.1350365401	 0.089921
182.2876	289.9254	320.4067	550.4654	591.5874	724.0748	791.4381	794.282	858.9354	883.0571	922.5395	1006.949	1007.4281	1045.2866	1083.1492	1122.0686	1132.3745	1160.6165	1171.6687	1204.0166	1235.6079	1263.4915	1285.2599	1382.4645	1414.0206	1489.4842	1494.4168	1505.8656	3036.0891	3075.3185	3075.784	3094.5066	3104.8994	3113.0257	3118.6172	3151.9418
CC1C2CC1O2	C[C@H]1[C@H]2C[C@@H]1O2	
InChI=1S/C5H8O/c1-3-4-2-5(3)6-4/h3-5H,2H2,1H3	InChI=1S/C5H8O/c1-3-4-2-5(3)6-4/h3-5H,2H2,1H3/t3-,4+,5-
