9
gdb 115	160.02654	2.04896	2.04896	1.1881	54.54	-0.242	-0.0085	0.2335	576.5936	0.065688	-192.762455	-192.756657	-192.755713	-192.790147	19.382	
C	-0.017945207	 1.4721711491	 0.0101686753	-0.519145
C	 0.002002505	 0.0210343263	 0.0018802847	 0.377319
C	 0.0184546528	-1.1885662996	-0.004751549	-0.275581
C	 0.0366861562	-2.5492940558	-0.0121242245	 0.294167
C	 0.0529076993	-3.7568015192	-0.018543641	-0.543351
H	 0.99849069	 1.88141173	 0.0027541872	 0.159092
H	-0.5427674027	 1.865210087	-0.8677593367	 0.159092
H	-0.5258699665	 1.8552219864	 0.9023268221	 0.159102
H	 0.0671145129	-4.8181834042	-0.0241495981	 0.189307
147.3608	147.4549	350.2237	350.2752	534.3161	534.3265	589.5134	589.5172	683.7764	1049.149	1049.1654	1187.3751	1411.649	1471.2095	1471.2785	2184.439	2371.011	3026.0655	3089.1693	3089.2299	3506.9942
CC#CC#C	CC#CC#C	
InChI=1S/C5H4/c1-3-5-4-2/h1H,2H3	InChI=1S/C5H4/c1-3-5-4-2/h1H,2H3
