13
gdb 2133	3.90605	3.20793	1.80213	0.6706	56.55	-0.239	-0.0531	0.1859	665.7831	0.103186	-340.678668	-340.67223	-340.671285	-340.708964	23.681	
N	 0.0146489233	 1.3335167319	 0.1104394108	-0.566211
C	-0.0574703324	-0.0198920576	 0.0363782842	 0.283497
N	-1.1181997911	-0.7407229296	 0.0225565351	-0.275823
C	-0.740118963	-2.1626245283	-0.0094363969	-0.167324
C	 0.8010636028	-2.2572324349	-0.0065450423	-0.349233
C	 1.2308580592	-0.79981143	-0.0138429204	 0.350644
O	 2.3359580881	-0.3177961154	-0.0691704427	-0.324066
H	 0.9100229033	 1.7407779234	-0.1095410415	 0.268889
H	-0.8104670668	 1.8743769184	-0.0879228706	 0.263868
H	-1.1879054676	-2.6700403809	 0.8525488834	 0.116344
H	-1.1772660087	-2.6266948363	-0.9010712794	 0.116103
H	 1.2045876395	-2.7527738144	 0.8821141347	 0.142674
H	 1.2148071235	-2.7752430061	-0.8764966845	 0.140639
89.6971	223.5139	276.5382	343.778	419.3555	498.728	526.2892	624.3911	654.8613	725.3848	757.7708	823.8634	940.4291	998.5968	1030.0569	1100.0244	1162.9556	1173.0514	1231.2601	1255.4379	1339.0914	1416.5327	1443.4829	1501.0652	1607.1989	1726.435	1830.5293	3034.8188	3059.1589	3064.1742	3105.4305	3592.3006	3717.0268
NC1=NCCC1=O	NC1=NCCC1=O	
InChI=1S/C4H6N2O/c5-4-3(7)1-2-6-4/h1-2H2,(H2,5,6)	InChI=1S/C4H6N2O/c5-4-3(7)1-2-6-4/h1-2H2,(H2,5,6)
