11
gdb 685	8.52805	3.52052	2.89772	2.1794	47.14	-0.2495	-0.0245	0.225	458.1637	0.085331	-285.25588	-285.251056	-285.250112	-285.28391	17.9	
O	 0.0260848302	 0.0244909548	-0.0240357416	-0.299974
C	 0.0183429412	 1.2159797331	 0.0780933736	 0.413139
C	-1.0847727888	 2.2979973393	 0.0637945889	-0.290867
N	-0.0330323789	 3.3527271916	-0.1755050163	-0.1075
C	 0.8008741413	 3.3254682285	 1.0165046406	-0.231781
C	 1.0613456777	 2.2882899821	-0.0286751538	-0.152382
H	-1.7348931345	 2.1859993925	-0.8078829895	 0.147082
H	-1.6905633667	 2.4577580508	 0.960106109	 0.130598
H	 1.5210039469	 4.1361783479	 1.072086256	 0.139404
H	 0.3636781357	 3.0347057943	 1.9697610553	 0.126777
H	 1.967684376	 2.2721534852	-0.6228961122	 0.125503
179.5054	447.5038	451.7089	537.5987	644.4111	740.1838	792.7736	868.3905	936.3659	965.6466	1021.4557	1044.3247	1092.9346	1101.0779	1125.4937	1195.2551	1219.3389	1241.3689	1309.6508	1460.2684	1504.9413	1896.4546	3061.6795	3103.4986	3123.2424	3189.3642	3201.3824
O=C1CN2CC12	O=C1CN2C[C@@H]12	
InChI=1S/C4H5NO/c6-4-2-5-1-3(4)5/h3H,1-2H2	InChI=1S/C4H5NO/c6-4-2-5-1-3(4)5/h3H,1-2H2/t3-,5?/m0/s1
