13
gdb 3979	7.9936	0.79676	0.72779	0.8166	87.22	-0.2314	-0.0561	0.1754	1447.2066	0.091995	-361.37166	-361.36287	-361.361926	-361.405371	30.759	
C	-0.041280546	 1.4854743913	 0.0007826853	-0.480954
C	 0.0177812944	-0.0225956158	 0.045941394	 0.128675
N	 0.0833450336	-0.7118803771	 1.1356842688	-0.142133
O	 0.0917643766	 0.1218946583	 2.2479868816	-0.387835
C	 0.0018289481	-0.7579046679	-1.166433628	 0.320069
C	-0.0156690792	-1.3208504927	-2.2412995141	-0.105926
C	-0.0344908419	-1.9635020603	-3.4366562284	 0.284063
C	-0.0512838058	-2.5330251807	-4.5022887842	-0.571142
H	 0.8405022633	 1.9091545723	 0.4912860759	 0.15365
H	-0.0917136684	 1.843216447	-1.0272473469	 0.137011
H	-0.9154404686	 1.842257698	 0.5541325386	 0.153651
H	 0.1419759474	-0.506953251	 2.976603211	 0.315668
H	-0.0659541235	-3.0374031614	-5.4365174634	 0.195203
78.8313	79.011	100.5089	225.2604	246.0012	285.8808	396.6208	447.8148	472.0345	491.4848	529.9946	534.6295	570.6061	601.0645	612.5268	741.9516	941.4484	1046.0758	1048.6279	1058.3108	1307.1661	1398.2321	1407.9999	1476.3414	1483.4065	1652.729	2177.1011	2337.5253	3049.5867	3109.1217	3156.9199	3503.9424	3812.435
CC(=NO)C#CC#C	CC(=NO)C#CC#C	
InChI=1S/C6H5NO/c1-3-4-5-6(2)7-8/h1,8H,2H3	InChI=1S/C6H5NO/c1-3-4-5-6(2)7-8/h1,8H,2H3
