17
gdb 1887	5.46976	1.97827	1.59671	1.7015	67.26	-0.2254	0.0239	0.2494	821.9987	0.147795	-309.734363	-309.726916	-309.725972	-309.765752	27.105	
C	 0.0730921664	 1.548129033	-0.0583476125	-0.385607
C	-0.0529216497	 0.0282348312	 0.0507032134	 0.109319
O	 0.5806905418	-0.5932577686	-1.0764464481	-0.278765
C	 1.5180503	-1.5670929652	-0.6405328104	-0.149024
C	 1.5326062624	-1.4816692518	 0.8657007255	 0.303779
C	 2.4393372223	-2.3246761465	 1.7016697059	-0.493275
C	 0.631648167	-0.579560359	 1.2451546341	-0.207971
H	 1.1246657609	 1.8481622856	-0.0268882556	 0.116511
H	-0.3609052356	 1.8948765088	-1.0005402158	 0.1239
H	-0.4569739752	 2.0388535066	 0.765074231	 0.108172
H	-1.1256784004	-0.2334334866	 0.0386735667	 0.076407
H	 1.2196834254	-2.5712444743	-0.9885208962	 0.096204
H	 2.5067377477	-1.3594949553	-1.0807897454	 0.099323
H	 3.4926656839	-2.1403442729	 1.454922735	 0.129574
H	 2.3010635411	-2.1283008166	 2.7678042543	 0.128124
H	 2.2609123043	-3.3932245002	 1.5263989786	 0.129457
H	 0.3949279176	-0.2965977282	 2.2639175995	 0.093871
89.5568	164.0698	176.5226	232.9074	284.3733	364.4759	399.0693	503.9902	603.2596	728.5296	834.4922	844.9253	903.9544	917.209	1000.5037	1011.6473	1023.5888	1079.0237	1093.3213	1107.8714	1135.3015	1200.6171	1216.013	1293.3024	1341.3426	1373.9331	1387.1849	1399.2267	1415.9474	1479.1065	1485.5148	1490.0252	1494.9484	1522.466	1735.1523	2940.256	2953.6069	2978.1925	3019.3577	3035.5045	3064.6052	3108.7636	3115.5616	3119.6037	3205.7748
CC1OCC(C)=C1	C[C@H]1OCC(=C1)C	
InChI=1S/C6H10O/c1-5-3-6(2)7-4-5/h3,6H,4H2,1-2H3	InChI=1S/C6H10O/c1-5-3-6(2)7-4-5/h3,6H,4H2,1-2H3/t6-/m1/s1
