14
gdb 2451	5.97322	2.45241	2.02685	3.6599	56.92	-0.2373	0.0286	0.266	643.6915	0.115845	-324.608694	-324.603003	-324.602059	-324.638061	22.266	
O	 0.0206285674	-0.0050431384	 0.1628865409	-0.367554
C	-0.0304043712	 1.1963850793	 0.0332862303	 0.383858
C	-1.2945115714	 2.0767533963	 0.0007499555	-0.342029
C	-0.7814397556	 3.5045653664	 0.0502654378	-0.040759
C	 0.0679271374	 3.9336833352	 1.2295136539	-0.296489
C	 0.7258111333	 3.4341396202	-0.0351997714	 0.000087
N	 1.0516393349	 2.0397636815	-0.0924726064	-0.296864
H	-1.8483429404	 1.8715231414	-0.9212257656	 0.132476
H	-1.9431007033	 1.7985942108	 0.8361087212	 0.135022
H	-1.3166904946	 4.2729389479	-0.4932117273	 0.098558
H	 0.1132432544	 4.9973360422	 1.438171777	 0.117957
H	 0.1119454782	 3.2945928987	 2.1061057462	 0.120393
H	 1.3069776596	 4.0957899177	-0.6671089918	 0.104385
H	 1.9749462115	 1.6847600207	 0.1034978799	 0.25096
120.6053	309.6687	446.1082	463.7893	480.8222	594.0042	649.9473	705.0182	781.4325	821.4784	853.1329	890.1132	948.826	998.0019	1039.9752	1065.5055	1080.4528	1091.4504	1139.2988	1191.291	1206.7795	1251.8689	1286.8777	1365.3593	1383.3014	1415.344	1463.0746	1480.918	1832.6689	3058.709	3100.5006	3125.4996	3172.7385	3187.9835	3217.3789	3630.1124
O=C1CC2CC2N1	O=C1C[C@H]2C[C@H]2N1	
InChI=1S/C5H7NO/c7-5-2-3-1-4(3)6-5/h3-4H,1-2H2,(H,6,7)	InChI=1S/C5H7NO/c7-5-2-3-1-4(3)6-5/h3-4H,1-2H2,(H,6,7)/t3-,4-/m1/s1
