12
gdb 4407	3.77147	2.09749	1.34871	5.0101	63.97	-0.2187	-0.0617	0.157	825.6606	0.0847	-414.708686	-414.702104	-414.70116	-414.73929	24.898	
N	 0.0703442464	 1.3470323242	 0.1456030352	-0.555618
C	-0.0580661403	-0.0045697593	 0.0504241189	 0.437549
C	-1.2325927059	-0.7139897615	 0.0196236904	-0.156466
N	-1.2208226859	-2.0689290736	-0.0190760999	-0.188731
C	-0.0871400371	-2.7061091749	-0.0298273487	-0.145403
C	 1.2089278289	-2.0578832054	-0.0080083792	 0.379379
O	 2.3059152964	-2.5375980732	-0.0224064729	-0.325807
O	 1.120419124	-0.6342595362	 0.0309825085	-0.238616
H	 0.9695741867	 1.7329139784	-0.0965860471	 0.277341
H	-0.7317935991	 1.9113138682	-0.0807346273	 0.276071
H	-2.1908844672	-0.2099758757	 0.0311449989	 0.107163
H	-0.0821182969	-3.7907437111	-0.0608820368	 0.133138
148.9516	189.9171	323.2249	388.1492	400.0227	463.5118	483.4582	527.4647	580.2684	704.6925	727.5039	760.9479	802.134	857.3875	884.7154	1019.1972	1058.2669	1110.6457	1192.5314	1335.8956	1399.0442	1458.9877	1525.1377	1621.0812	1659.5509	1857.1283	3184.5084	3200.7622	3596.8729	3717.1248
NC1=CN=CC(=O)O1	Nc1cncc(=O)o1	
InChI=1S/C4H4N2O2/c5-3-1-6-2-4(7)8-3/h1-2H,5H2	InChI=1S/C4H4N2O2/c5-3-1-6-2-4(7)8-3/h1-2H,5H2
