14
gdb 4579	5.86019	1.55137	1.23599	2.1836	67.12	-0.2419	-0.0378	0.2041	930.9622	0.108177	-378.781068	-378.773951	-378.773007	-378.813025	25.954	
C	-0.0557993242	 1.4913360987	 0.031929852	-0.45989
C	 0.0033193755	-0.0112142721	 0.0108883993	 0.34652
N	 0.0916997527	-0.6046467732	-1.1897893127	-0.272974
C	 0.1442876949	-1.9303312109	-1.2158526049	-0.043988
C	 0.1102093846	-2.6962398667	-0.0488965166	 0.303412
O	 0.1674958143	-4.0494560459	-0.1417952365	-0.433211
C	 0.0177853975	-1.9876392986	 1.1441992916	-0.112729
N	-0.0355896559	-0.6565738478	 1.1810072649	-0.265619
H	 0.834930258	 1.9154418559	-0.442491142	 0.138028
H	-0.9195522618	 1.8477494613	-0.5383689599	 0.138028
H	-0.1258093089	 1.8521868003	 1.0582852309	 0.134431
H	 0.2160263915	-2.4204901801	-2.184346562	 0.122919
H	 0.1342619923	-4.4334978847	 0.7415726977	 0.303626
H	-0.0141992704	-2.5111248662	 2.1011251782	 0.101448
40.2246	129.0189	311.522	355.3661	366.2089	421.2511	432.2839	508.4303	522.5174	654.0319	768.9208	774.8106	871.3419	931.1984	972.4081	1006.2023	1047.9873	1067.36	1188.3341	1269.6066	1284.6983	1310.1914	1321.5204	1407.0519	1444.2486	1474.9865	1480.123	1500.4912	1604.4085	1635.4607	3046.5103	3102.2327	3113.0747	3154.088	3158.0362	3807.9225
CC1=NC=C(O)C=N1	Cc1ncc(O)cn1	
InChI=1S/C5H6N2O/c1-4-6-2-5(8)3-7-4/h2-3,8H,1H3	InChI=1S/C5H6N2O/c1-4-6-2-5(8)3-7-4/h2-3,8H,1H3
