13
gdb 1311	3.65301	2.62796	2.2389	3.314	49.68	-0.2625	0.0008	0.2634	648.3864	0.100436	-381.612501	-381.605481	-381.604536	-381.643329	24.923	
C	-0.1284641178	 1.5797877174	 0.0648933349	-0.454869
C	-0.0363186717	 0.0638325732	-0.0231645273	 0.208942
O	-1.2947225481	-0.5673053167	 0.0524158973	-0.460025
C	 0.8208768376	-0.5346863758	-1.1557985707	-0.098185
O	 1.7890859504	-1.0403318002	-0.1767232616	-0.240341
C	 1.0455349024	-0.5819647656	 0.8780520008	 0.412785
O	 1.252503417	-0.714953788	 2.0411689899	-0.331313
H	 0.8527999392	 2.0484612052	-0.0562922508	 0.134113
H	-0.8016281708	 1.9570555696	-0.7103802211	 0.136301
H	-0.521291896	 1.8763598164	 1.0431403999	 0.133958
H	-1.6697932503	-0.3799242492	 0.9207874753	 0.295069
H	 0.3409400905	-1.3553230802	-1.6901098332	 0.138431
H	 1.2950283875	 0.1692880239	-1.8415893834	 0.125133
130.7192	159.5856	220.5515	244.0726	312.8527	360.4746	400.9225	570.6202	687.6563	745.0133	779.4647	890.0096	941.294	959.0272	983.302	1100.0589	1133.84	1156.1065	1210.2813	1236.0166	1338.2479	1389.4925	1408.0005	1487.4462	1490.9263	1509.644	1936.3455	3037.23	3082.6281	3109.5992	3121.1182	3152.1755	3801.6483
CC1(O)COC1=O	C[C@@]1(O)COC1=O	
InChI=1S/C4H6O3/c1-4(6)2-7-3(4)5/h6H,2H2,1H3	InChI=1S/C4H6O3/c1-4(6)2-7-3(4)5/h6H,2H2,1H3/t4-/m1/s1
