8
gdb 3946	7.76477	2.37424	1.81826	3.9731	37.46	-0.2814	0.0027	0.2842	594.9344	0.043532	-432.401755	-432.396621	-432.395677	-432.43074	18.291	
O	-0.1240617088	 1.291290895	 0.0104350574	-0.376106
C	 0.0630540842	-0.0127108924	 0.0025578513	 0.526331
N	 1.1825250787	-0.6418133635	-0.0073673833	-0.247895
O	 0.7718866861	-2.0153478046	-0.0122119622	-0.229504
C	-0.5766745586	-2.0827100225	-0.004191186	 0.539332
O	-1.2593729661	-3.0475398482	-0.005761065	-0.344402
O	-1.0457347033	-0.7636994156	 0.0051699574	-0.207257
H	 0.7416330777	 1.7251946518	 0.0075565604	 0.339501
190.7783	340.2178	368.489	456.0645	578.0074	670.5796	701.5411	776.6807	780.3316	888.9112	977.5947	1004.1534	1151.5038	1226.4276	1533.2134	1718.8725	1968.8566	3776.1599
OC1=NOC(=O)O1	Oc1noc(=O)o1	
InChI=1S/C2HNO4/c4-1-3-7-2(5)6-1/h(H,3,4)	InChI=1S/C2HNO4/c4-1-3-7-2(5)6-1/h(H,3,4)
