18
gdb 3079	9.73433	1.01065	0.96884	2.1266	65.16	-0.2311	0.0791	0.3102	1196.3784	0.159372	-326.93544	-326.927237	-326.926293	-326.968496	28.743	
O	-0.1592980621	 1.415518297	-0.237246542	-0.420066
C	-0.0124343633	 0.0375692698	 0.0718408139	-0.072612
C	-1.3870550396	-0.6104985382	-0.0205620222	-0.164333
C	-1.3548402569	-2.1095222957	 0.2726757065	-0.14261
N	-2.6981714006	-2.6760920094	 0.221542883	-0.057569
C	-3.1509362087	-3.1460461179	-1.0834320147	-0.218396
C	-2.7870796789	-4.1119785069	-0.0100791113	-0.221074
H	 0.7049685108	 1.8316531073	-0.1714354016	 0.28469
H	 0.6825317894	-0.4547340211	-0.6290046157	 0.081701
H	 0.398918818	-0.1014306657	 1.0855524803	 0.083945
H	-2.0663179784	-0.1172731142	 0.6823646948	 0.117803
H	-1.789385828	-0.4365107413	-1.0254893427	 0.107098
H	-0.6691925577	-2.6170799294	-0.4332384663	 0.07423
H	-0.9590773855	-2.287025101	 1.2809595638	 0.101166
H	-4.1917024483	-2.9507253959	-1.3251230123	 0.116888
H	-2.4639240491	-3.058916006	-1.9246318358	 0.107132
H	-1.8591523763	-4.6681084367	-0.1379885568	 0.106148
H	-3.5569712749	-4.635944455	 0.549354349	 0.115861
71.0062	84.6141	130.0973	151.9077	260.6823	314.0006	329.2872	412.5775	504.5181	769.3208	773.7246	836.5624	887.0498	905.2052	1012.1029	1017.4914	1041.6782	1067.0121	1088.3908	1113.5169	1117.0066	1148.2136	1174.4732	1195.3229	1239.6943	1243.6537	1307.3248	1310.4416	1317.469	1325.3778	1406.7759	1465.908	1486.9324	1494.7194	1503.9302	1522.7665	1530.9995	2913.7269	2954.9809	2978.4514	3033.9933	3045.3358	3089.2605	3092.4002	3094.2331	3173.7768	3188.0518	3830.3655
OCCCN1CC1	OCCCN1CC1	
InChI=1S/C5H11NO/c7-5-1-2-6-3-4-6/h7H,1-5H2	InChI=1S/C5H11NO/c7-5-1-2-6-3-4-6/h7H,1-5H2
