13
gdb 1651	5.31175	1.93922	1.44607	1.3223	51.5	-0.2525	-0.0704	0.182	812.0644	0.098825	-381.634033	-381.62598	-381.625036	-381.66722	26.209	
C	 0.1243700694	 1.4095467754	 0.1292051889	-0.242045
O	 0.1309435109	-0.0245514227	 0.069928419	-0.204796
C	 0.839088144	-0.5493537182	-0.9288152546	 0.349216
O	 1.4530300507	 0.0789353659	-1.7564586909	-0.347404
C	 0.7902526587	-2.0967450583	-0.9159856229	 0.284599
C	 1.5759942201	-2.7478149611	-2.0264709236	-0.471172
O	 0.1676983119	-2.6914734754	-0.0752263239	-0.261338
H	 1.1406134112	 1.7908878842	 0.2567983326	 0.145508
H	-0.2962311674	 1.8276328715	-0.7887700734	 0.145605
H	-0.4940181725	 1.6664974129	 0.9882719979	 0.143838
H	 1.2085114027	-2.4036507066	-2.9984959396	 0.15751
H	 2.6256443787	-2.441531581	-1.9733251698	 0.157509
H	 1.4900969817	-3.8315254366	-1.9475254597	 0.142971
40.0786	119.1785	122.4444	152.5479	192.7001	325.0555	366.2514	438.1042	510.5134	610.9067	725.5582	837.1427	939.9776	1027.9732	1037.8225	1161.8575	1177.8006	1214.3536	1317.9313	1386.396	1452.9574	1460.9241	1473.574	1483.0036	1493.3083	1804.8089	1830.9066	3049.6586	3053.8952	3110.867	3128.984	3163.4371	3168.3325
COC(=O)C(C)=O	COC(=O)C(=O)C	
InChI=1S/C4H6O3/c1-3(5)4(6)7-2/h1-2H3	InChI=1S/C4H6O3/c1-3(5)4(6)7-2/h1-2H3
