16
gdb 2092	4.99093	2.46802	1.76713	2.3425	61.28	-0.2445	0.0291	0.2735	725.1763	0.138646	-325.800095	-325.793566	-325.792622	-325.830351	24.515	
C	 0.0209899586	 1.5379232295	 0.0661258676	-0.402847
C	 0.002966402	 0.0231966579	-0.044217362	 0.152884
C	 0.7327344279	-0.5304072462	-1.2650894268	-0.229528
C	 0.7634630097	-2.0598588564	-1.1832272423	-0.160884
N	 1.1605145528	-2.5550788818	 0.1327154077	-0.266661
C	 1.0717257642	-1.7635679158	 1.1141679985	 0.131194
O	 0.6089524253	-0.4904358376	 1.16299827	-0.240431
H	 1.0498458542	 1.9103906306	 0.0757020933	 0.126668
H	-0.5030694734	 1.9842144224	-0.7844467297	 0.118973
H	-0.471254375	 1.8622219463	 0.9869031132	 0.128947
H	-1.0370111086	-0.3342082257	-0.0548080704	 0.087353
H	 0.2395096814	-0.1891509947	-2.1813821902	 0.102098
H	 1.7559839916	-0.1355008802	-1.2752290292	 0.110455
H	-0.221835506	-2.4784447665	-1.4299113137	 0.11042
H	 1.4595030193	-2.4713349494	-1.9224079333	 0.111019
H	 1.3991297362	-2.0708476724	 2.1063214072	 0.120341
121.8015	215.2564	233.7225	309.3981	432.0035	459.7976	515.2548	552.2669	785.8	805.9854	881.8962	892.2266	957.7407	975.8071	979.3254	1026.1785	1102.636	1154.8583	1163.4642	1166.0513	1240.8399	1260.6856	1335.7878	1365.4375	1379.9932	1399.9624	1409.0544	1417.1304	1477.1822	1486.06	1492.7142	1498.7931	1734.884	2998.7323	3015.9274	3033.3613	3043.4145	3059.4037	3083.9647	3118.1898	3122.7229	3152.7359
CC1CCN=CO1	C[C@H]1CCN=CO1	
InChI=1S/C5H9NO/c1-5-2-3-6-4-7-5/h4-5H,2-3H2,1H3	InChI=1S/C5H9NO/c1-5-2-3-6-4-7-5/h4-5H,2-3H2,1H3/t5-/m0/s1
