17
gdb 4170	3.56415	1.61784	1.23925	0.9086	73.57	-0.2286	0.0067	0.2353	993.0919	0.141329	-363.797806	-363.789934	-363.78899	-363.830227	29.605	
O	-0.1065111426	 1.2871135898	 0.1539248854	-0.394927
N	-0.0139970885	-0.1141425602	 0.2860705267	-0.259596
C	-1.1243430218	-0.6679301787	 0.0283542949	 0.365189
C	-2.5158847478	-0.2189097424	-0.3820111776	-0.32145
C	-2.9461597038	-1.7258426194	-0.3830435189	-0.31833
C	-1.5102168893	-2.106745621	 0.0340613971	 0.287907
C	-0.6691170577	-3.270198304	-0.4302223574	-0.312332
C	-1.0600550928	-3.1596096912	 1.0166384786	-0.312333
H	 0.7876530091	 1.5689998099	 0.3739940816	 0.304614
H	-3.0171524681	 0.4156526829	 0.3537861642	 0.128138
H	-2.5563994926	 0.2852585143	-1.3512946541	 0.128139
H	-3.7162347246	-1.9746483532	 0.3509662474	 0.10761
H	-3.2538884378	-2.1054904415	-1.3602128922	 0.107609
H	-1.15678408	-4.0254234018	-1.0384072438	 0.115286
H	 0.3582315905	-3.0552233537	-0.7034946205	 0.129594
H	-0.3004019965	-2.8689097973	 1.734104733	 0.129595
H	-1.8152763756	-3.8391473224	 1.3986623855	 0.115285
63.5916	147.2374	160.5484	278.3301	281.4582	347.3685	430.7871	503.9189	504.0645	587.6589	757.4911	763.6506	779.3651	839.7317	885.6002	926.8664	929.8042	969.2297	1004.4096	1051.2258	1055.2187	1076.9528	1119.8816	1123.2862	1195.3004	1205.1154	1211.3593	1251.5257	1270.2309	1356.8791	1420.9194	1457.1856	1457.8864	1489.962	1493.2367	1776.1672	3061.174	3066.8277	3103.2109	3120.5989	3126.5894	3129.6117	3210.7176	3225.7877	3818.4633
ON=C1CCC11CC1	ON=C1CCC21CC2	
InChI=1S/C6H9NO/c8-7-5-1-2-6(5)3-4-6/h8H,1-4H2	InChI=1S/C6H9NO/c8-7-5-1-2-6(5)3-4-6/h8H,1-4H2
