14
gdb 1990	6.61115	1.67245	1.42544	3.1767	53.99	-0.2423	0.0284	0.2707	818.7639	0.113328	-361.725394	-361.718223	-361.717279	-361.757171	25.498	
N	-0.1995537783	 0.404671	-0.9218827778	-0.50772
C	 0.0490805351	-0.0176933136	 0.3500440573	 0.374499
O	 0.9323265648	 0.4379377745	 1.0483076808	-0.357313
C	-0.923991344	-1.0976430786	 0.8460607067	-0.322935
C	-1.0060444432	-2.3005321653	-0.0664506415	 0.083615
C	-2.2817757358	-2.9515767356	-0.3896853207	-0.178234
O	-1.6416091406	-2.0927462281	-1.3387793097	-0.24018
H	 0.4403367144	 1.0637103057	-1.3341003996	 0.258012
H	-0.8553526986	-0.0865818279	-1.5088904562	 0.276704
H	-0.5852628364	-1.3994407148	 1.8396214167	 0.134078
H	-1.9196934262	-0.6500675684	 0.9442145193	 0.122536
H	-0.0984763205	-2.9011892411	-0.1320845661	 0.110604
H	-2.3023419923	-4.0049399904	-0.6629813634	 0.124438
H	-3.2025322784	-2.5647145265	 0.0443731739	 0.121898
52.4014	105.7561	196.381	346.5944	364.1657	379.2713	465.6226	548.7162	600.4208	714.5223	797.2245	863.0715	871.4561	936.5875	963.5564	1084.8893	1099.0221	1130.6169	1163.1111	1174.2572	1232.2865	1289.8224	1305.6497	1358.8297	1435.8918	1460.9025	1528.7526	1620.3879	1808.0151	3048.0007	3089.99	3108.9557	3124.1136	3179.4109	3578.2132	3718.33
NC(=O)CC1CO1	NC(=O)C[C@H]1CO1	
InChI=1S/C4H7NO2/c5-4(6)1-3-2-7-3/h3H,1-2H2,(H2,5,6)	InChI=1S/C4H7NO2/c5-4(6)1-3-2-7-3/h3H,1-2H2,(H2,5,6)/t3-/m0/s1
