16
gdb 4927	4.6964	1.48576	1.14487	2.668	68.56	-0.1869	0.0353	0.2222	1030.7271	0.130806	-379.9601	-379.951836	-379.950892	-379.99376	28.937	
C	-0.0574452715	 1.4056171198	-0.0333614354	-0.22938
O	-0.0021827029	-0.0146076405	 0.002784257	-0.277455
C	-1.1927632952	-0.6489414517	 0.020148208	 0.369578
C	-1.3669440034	-2.0096506039	 0.0542490302	-0.231583
N	-2.7451972174	-2.1702733626	 0.0601251198	-0.277526
C	-3.3175016982	-0.9386796027	 0.0298057977	 0.349376
C	-4.7926185631	-0.7121436707	 0.0264461833	-0.495663
N	-2.3922641961	 0.0068681299	 0.0054259018	-0.382885
H	 0.9805405727	 1.7434241298	-0.0438619441	 0.119757
H	-0.5762255406	 1.7628635036	-0.9292922534	 0.126312
H	-0.572961632	 1.8081505389	 0.8450965909	 0.126295
H	-0.6794956835	-2.835928432	 0.0737137143	 0.125525
H	-3.2318603191	-3.0501616116	 0.0827460109	 0.260763
H	-5.2720064043	-1.1169737787	 0.925529266	 0.130619
H	-4.9797927557	 0.3617318301	-0.0072925713	 0.155921
H	-5.2766245795	-1.1736287276	-0.8423047557	 0.130346
37.1979	75.1415	159.7597	202.3328	222.8015	340.6402	354.1381	499.5988	517.4909	613.7183	636.6459	675.5204	731.0432	746.771	971.86	994.3732	1048.1162	1059.799	1090.4693	1106.5823	1180.7376	1206.2577	1256.1462	1322.4772	1386.4234	1412.9528	1450.3102	1471.6244	1478.9171	1483.3558	1503.9833	1510.0039	1573.2136	1630.4295	3027.4442	3028.1532	3075.3912	3091.6365	3134.0868	3148.0757	3292.9899	3668.4152
COC1=CNC(C)=N1	COc1c[nH]c(C)n1	
InChI=1S/C5H8N2O/c1-4-6-3-5(7-4)8-2/h3H,1-2H3,(H,6,7)	InChI=1S/C5H8N2O/c1-4-6-3-5(7-4)8-2/h3H,1-2H3,(H,6,7)
