15
gdb 1739	5.42957	1.77932	1.65435	1.0868	62.44	-0.2514	0.0428	0.2942	792.8597	0.122983	-308.46788	-308.460426	-308.459482	-308.499135	28.096	
O	-0.1907204874	 1.3986820139	-0.1426162375	-0.467581
C	-0.0225473707	 0.0140954795	-0.040426759	 0.435008
C	 1.1040652513	-0.5321155231	-0.9134117851	-0.402589
C	 2.3851271476	 0.0813424048	-0.5715390081	 0.278919
C	 3.4063681787	 0.6355336423	-0.2609780643	-0.441923
C	-0.3288214522	-0.64148527	 1.2820382995	-0.310903
C	-1.2896419038	-0.7625992543	 0.1100281423	-0.312847
H	 0.6391210183	 1.8056184144	 0.1376066511	 0.285725
H	 1.1665523569	-1.6209173717	-0.8040347516	 0.12836
H	 0.8701398604	-0.3277320891	-1.9659398371	 0.138753
H	 4.3253265642	 1.099633078	-0.0003828053	 0.199571
H	 0.2388618506	-1.5162520537	 1.5811449338	 0.112247
H	-0.6204913272	 0.0152749251	 2.0933463242	 0.118035
H	-2.2052969775	-0.18455887	 0.153541696	 0.127109
H	-1.3777416292	-1.7195710861	-0.3931725289	 0.112117
79.8451	129.6356	302.2285	319.7555	353.0088	371.2929	399.8792	449.4973	540.2417	621.2522	655.2556	743.953	772.6626	882.7826	899.7988	933.641	971.2664	980.6619	1009.4742	1050.24	1079.3038	1186.3358	1193.8488	1279.3956	1305.8631	1317.6788	1411.031	1451.5018	1462.0521	1506.4141	2232.5941	3026.7728	3067.7225	3133.6986	3137.4986	3219.4381	3233.0668	3505.1248	3767.7301
OC1(CC#C)CC1	OC1(CC#C)CC1	
InChI=1S/C6H8O/c1-2-3-6(7)4-5-6/h1,7H,3-5H2	InChI=1S/C6H8O/c1-2-3-6(7)4-5-6/h1,7H,3-5H2
