9
gdb 3646	10.1078	2.04649	1.70191	1.0381	52.08	-0.2778	-0.0529	0.2249	651.7952	0.05546	-338.194242	-338.188862	-338.187918	-338.223412	19.13	
C	 0.0443266629	-1.1731067521	-0.0041922598	-0.368167
C	 0.0072594173	 0.0274257102	 0.0026339171	 0.292076
C	-0.0259828653	 1.4434826838	 0.0105554005	 0.210568
N	-1.1560661877	 2.1180589396	 0.0296071516	-0.168948
O	-0.735377515	 3.4452954507	 0.031142714	-0.140075
C	 0.5997130296	 3.4201529528	 0.0132669368	 0.085903
N	 1.1121128834	 2.2341692366	 0.0000405697	-0.295486
H	 0.0766514914	-2.2352247632	-0.0102291357	 0.21083
H	 1.1109620734	 4.3716208915	 0.0117557359	 0.1733
169.0515	175.3033	450.8119	530.8955	605.0891	630.0714	650.0165	683.0139	772.7196	901.6917	930.9006	984.8018	1002.1491	1137.2133	1294.1167	1336.4484	1490.6607	1572.8234	2256.3792	3269.5253	3500.3127
C#CC1=NOC=N1	C#Cc1nocn1	
InChI=1S/C4H2N2O/c1-2-4-5-3-7-6-4/h1,3H	InChI=1S/C4H2N2O/c1-2-4-5-3-7-6-4/h1,3H
