17
gdb 4068	7.44678	0.97961	0.89822	1.3596	69.84	-0.2423	0.0063	0.2485	1260.0502	0.14004	-400.9337	-400.925175	-400.924231	-400.96708	30.669	
C	-0.5526316679	 1.5985320552	-0.1024923653	-0.240475
O	-0.1713902358	 0.3569753113	 0.4486177275	-0.237164
C	-1.0428609349	-0.6861770809	 0.1195082106	 0.145951
C	-0.9490222304	-1.2898696033	-1.3294376134	-0.343082
C	-0.8221877526	-2.6424267945	-0.6631277384	 0.410116
C	-0.6092591854	-2.0508637556	 0.714926935	-0.347113
N	-0.9822579141	-3.8027640077	-1.1425728886	-0.231581
O	-0.841391868	-4.783323923	-0.1403192158	-0.394621
H	 0.1756387025	 2.3401244238	 0.2334978092	 0.130479
H	-0.5546926012	 1.5777023039	-1.2026263367	 0.110131
H	-1.5547305763	 1.9022362454	 0.2383848785	 0.107209
H	-2.0798793887	-0.4259269205	 0.3782967869	 0.073973
H	-1.7894074134	-1.1435543943	-2.0114442983	 0.119018
H	-0.0217849085	-0.976709829	-1.8224225758	 0.126297
H	 0.4453345825	-2.0317921013	 1.0090231407	 0.136769
H	-1.2001821123	-2.4699708962	 1.5315322125	 0.128295
H	-1.0023686455	-5.5965698934	-0.6304945087	 0.305798
52.8275	104.2875	174.8321	205.0758	260.6521	267.3488	350.7604	417.8953	447.8941	471.896	538.205	678.6137	777.2457	789.2153	924.5618	963.2574	968.1525	1021.7217	1045.3587	1080.033	1160.0972	1176.755	1179.3444	1187.9757	1201.8044	1243.1647	1256.127	1286.8644	1385.5632	1403.5362	1441.2715	1461.6182	1484.3858	1489.0376	1508.8324	1789.2689	2976.2441	2993.8172	3025.1306	3046.7103	3060.5515	3112.834	3118.9644	3121.4692	3819.2901
COC1CC(C1)=NO	CO[C@H]1CC(=NO)C1	
InChI=1S/C5H9NO2/c1-8-5-2-4(3-5)6-7/h5,7H,2-3H2,1H3	InChI=1S/C5H9NO2/c1-8-5-2-4(3-5)6-7/h5,7H,2-3H2,1H3/t5-
