14
gdb 2011	6.06376	2.06932	2.01093	1.7059	58.35	-0.2297	-0.0392	0.1905	676.247	0.114069	-324.495988	-324.489969	-324.489025	-324.526253	22.096	
O	-0.0472673259	-0.018392001	 0.039692701	-0.242177
C	 0.0048792984	 1.186096582	 0.0073928688	 0.029687
C	 1.2804840703	 1.9657881589	 0.0014959892	 0.21847
C	 2.7346035075	 1.4580729727	 0.0318251139	-0.200618
N	 2.9325780026	 2.9899750401	-0.0068995974	-0.141448
C	 1.8067762542	 2.9749098461	-1.0563811384	-0.205373
C	 1.7830062797	 3.0302999865	 1.0157345939	-0.205359
H	-0.9233698103	 1.8039825429	-0.0208164123	 0.072513
H	 3.0960114615	 0.9945201607	 0.9521587628	 0.113115
H	 3.1167801779	 0.9461724028	-0.8538434559	 0.113104
H	 2.1138094992	 2.5734975494	-2.0253036254	 0.114725
H	 1.2923725434	 3.9335448244	-1.1604522054	 0.109316
H	 1.2669194817	 3.9927976918	 1.056618383	 0.109314
H	 2.0674462797	 2.6814011424	 2.0115137622	 0.114733
68.3023	181.5103	268.3809	451.4736	577.5891	577.9729	702.8727	758.374	802.3543	890.285	909.1127	935.1771	982.1159	1020.2826	1022.1894	1050.1131	1149.6845	1157.3093	1163.7688	1163.8696	1197.6507	1200.1683	1279.0513	1314.4243	1420.6067	1510.0518	1510.8627	1561.056	1817.5486	2854.7894	3053.4148	3058.0852	3069.4275	3124.1251	3129.1575	3137.5259
O=CC12CN(C1)C2	O=C[C@@]12CN(C1)C2	
InChI=1S/C5H7NO/c7-4-5-1-6(2-5)3-5/h4H,1-3H2	InChI=1S/C5H7NO/c7-4-5-1-6(2-5)3-5/h4H,1-3H2
