9
gdb 3907	5.94607	3.05861	2.0197	4.9976	47.1	-0.2823	-0.1176	0.1647	560.0165	0.05554	-375.359407	-375.354211	-375.353267	-375.38892	18.138	
O	-0.0010925462	-0.0376350429	 0.002762356	-0.30175
C	 0.0396499902	 1.1520234905	 0.0086714596	 0.487021
O	-1.1999952894	 1.8326234207	 0.0287181213	-0.238
N	-1.3097300883	 3.1969201569	 0.0375823215	-0.008681
C	-0.2029952405	 3.8559181816	 0.0265120947	 0.012007
C	 1.0794122332	 3.1984767968	 0.0058837113	 0.023359
N	 1.2078658933	 1.9181255964	-0.002747829	-0.282653
H	-0.2983991715	 4.9359692159	 0.0336668272	 0.157298
H	 1.9873655991	 3.8022955341	-0.0028710126	 0.1514
64.7516	339.5346	499.593	529.7553	580.0586	600.34	787.7453	797.3892	872.1938	890.4612	1011.1016	1012.7835	1046.638	1088.4245	1340.3727	1411.4129	1595.368	1686.2048	1886.4213	3132.4408	3206.4094
O=C1ON=CC=N1	O=c1onccn1	
InChI=1S/C3H2N2O2/c6-3-4-1-2-5-7-3/h1-2H	InChI=1S/C3H2N2O2/c6-3-4-1-2-5-7-3/h1-2H
