15
gdb 3605	4.92819	2.25016	1.8935	2.837	56.55	-0.2327	0.0828	0.3156	702.298	0.12489	-345.606444	-345.599788	-345.598844	-345.636975	25.074	
O	-0.1639371092	 1.4143858664	 0.4429224517	-0.430034
C	-0.058384244	 0.0565348857	 0.1574324678	 0.149475
C	-0.6126236274	-0.9943901826	 1.0793632807	-0.351654
C	-1.2553975711	-0.7649067522	-0.2798157094	-0.093947
C	-2.5954965096	-0.1087324644	-0.3831911074	 0.071437
C	-3.7050302784	-0.3952651208	 0.5377746041	-0.177283
O	-2.9434363798	 0.8117099656	 0.6659917631	-0.251766
H	-1.0282576549	 1.5652015227	 0.8460696172	 0.302636
H	 0.8895465732	-0.1443985255	-0.3311303913	 0.105855
H	-0.0603738979	-1.9128514645	 1.2459569739	 0.112998
H	-1.1571936586	-0.629445899	 1.9449479604	 0.123506
H	-1.0836887828	-1.5155824056	-1.046846328	 0.091255
H	-2.8536465916	 0.2585902753	-1.3771427712	 0.103815
H	-4.7339125967	-0.2507544014	 0.2139022961	 0.121995
H	-3.5576618311	-1.1239719098	 1.3323188624	 0.121711
93.9198	190.7196	228.3414	345.3179	410.6674	445.2405	530.0733	642.8174	728.944	789.0796	815.7026	843.8855	907.6357	986.73	995.773	1052.7443	1060.3996	1101.1682	1113.24	1124.3838	1137.5644	1162.7217	1173.3256	1225.0852	1287.5076	1348.1125	1380.422	1429.6369	1447.7543	1485.8272	1522.5768	3093.3679	3104.68	3127.6625	3141.3522	3166.8201	3185.2958	3216.8471	3776.9132
OC1CC1C1CO1	O[C@H]1C[C@H]1[C@H]1CO1	
InChI=1S/C5H8O2/c6-4-1-3(4)5-2-7-5/h3-6H,1-2H2	InChI=1S/C5H8O2/c6-4-1-3(4)5-2-7-5/h3-6H,1-2H2/t3-,4+,5-/m1/s1
