12
gdb 1400	7.03993	1.47308	1.26905	0.9885	54.96	-0.2841	-0.0074	0.2767	860.1507	0.09046	-319.573727	-319.566389	-319.565445	-319.605346	25.146	
N	-0.0864753968	 1.4960775749	 0.0766886464	-0.497778
C	 0.0156901993	 0.0473687	 0.0174344728	-0.124132
C	 0.6967866683	-0.545047376	-1.2621737264	-0.344315
C	 0.0001300579	-0.096404158	-2.4627582607	 0.254135
N	-0.5788847829	 0.2914851294	-3.3844901014	-0.292838
C	 0.7435082836	-0.4498804832	 1.1953879681	 0.298385
N	 1.3442829413	-0.8574487827	 2.0933813264	-0.302496
H	 0.8297656453	 1.9301027088	 0.0191277991	 0.24701
H	-0.6420371959	 1.8347268431	-0.7029739878	 0.260265
H	-1.0022681834	-0.3568209965	 0.0665940886	 0.159029
H	 1.7416496926	-0.219691686	-1.3051603281	 0.168353
H	 0.6965726007	-1.6395172438	-1.2221265571	 0.174383
79.1144	126.8813	190.994	245.3724	317.6011	364.135	396.8908	519.6171	559.7657	579.3697	831.4681	843.2886	912.5728	959.042	1016.1241	1128.5474	1179.9398	1253.9143	1292.7206	1348.4205	1416.2761	1461.1673	1660.2635	2362.8791	2368.7584	3049.2452	3056.358	3099.5287	3499.8603	3587.3548
NC(CC#N)C#N	N[C@@H](CC#N)C#N	
InChI=1S/C4H5N3/c5-2-1-4(7)3-6/h4H,1,7H2	InChI=1S/C4H5N3/c5-2-1-4(7)3-6/h4H,1,7H2/t4-/m0/s1
