16
gdb 478	5.88257	3.5926	2.86567	0.3029	60.48	-0.243	0.0951	0.338	542.9521	0.143756	-234.474951	-234.469056	-234.468112	-234.50378	22.864	
C	-0.0187158986	 1.5508892854	 0.0393573012	-0.493919
C	 0.0514560401	 0.0513228615	 0.0137572036	 0.381324
C	-0.8538926657	-0.8290935513	 0.8319911004	-0.314705
C	 0.635442294	-0.9413397756	 1.028331991	-0.082751
C	 1.2442663104	-1.7784751602	-0.1008124833	-0.21534
C	 0.6438669911	-0.7755147121	-1.1404835948	-0.277573
H	 0.942673477	 2.0021751927	-0.2333022667	 0.112616
H	-0.7707388915	 1.9268913141	-0.6658974379	 0.116891
H	-0.2902743043	 1.9189008246	 1.0345608361	 0.114739
H	-1.389911744	-0.323245712	 1.6296844147	 0.103724
H	-1.4108611528	-1.6437531417	 0.371572055	 0.097383
H	 1.0966647749	-0.7449947732	 1.9897242778	 0.078031
H	 2.3365916409	-1.7715814305	-0.1052752317	 0.099718
H	 0.90412118	-2.8179741557	-0.1632998638	 0.092222
H	-0.0744765902	-1.1764611861	-1.8640665448	 0.089816
H	 1.4218929386	-0.2374813598	-1.6888083969	 0.097823
208.0811	215.458	310.7173	354.2511	424.388	605.8233	716.9719	784.133	808.5464	869.4474	927.2621	946.9499	967.8545	971.7221	1013.616	1038.6826	1064.8071	1091.9903	1140.1008	1159.4958	1223.2989	1241.2372	1245.7736	1275.1531	1306.8352	1392.7906	1423.7017	1481.0341	1486.5838	1487.4638	1499.3742	1514.3416	3015.4694	3035.6561	3044.612	3071.6091	3086.5855	3091.1153	3093.5353	3107.0908	3169.9237	3188.021
CC12CC1CC2	C[C@]12C[C@H]1CC2	
InChI=1S/C6H10/c1-6-3-2-5(6)4-6/h5H,2-4H2,1H3	InChI=1S/C6H10/c1-6-3-2-5(6)4-6/h5H,2-4H2,1H3/t5-,6+/m1/s1
