11
gdb 346	8.70299	2.23063	1.81499	3.5163	48.11	-0.2976	-0.0854	0.2122	643.1284	0.08307	-285.317454	-285.31081	-285.309865	-285.34803	21.82	
C	 0.053702631	 1.5386196685	 0.0093228785	-0.390468
C	-0.0565607968	 0.0165302179	 0.0028788803	-0.285707
C	-1.4845948712	-0.4759057786	 0.0137490229	 0.296915
O	-2.4651038173	 0.2233098837	 0.0267194483	-0.259545
C	-1.6270764349	-1.9518845313	 0.0072864191	 0.223572
N	-1.7237318103	-3.1041286104	 0.0021607159	-0.292708
H	 1.1036087169	 1.8411290815	 0.0011472373	 0.125408
H	-0.4388113952	 1.9700014094	-0.8654936061	 0.141702
H	-0.4226079035	 1.9613568223	 0.8972293018	 0.141717
H	 0.4344253792	-0.4279352729	-0.8743550192	 0.149547
H	 0.450475352	-0.4364040501	 0.8665626212	 0.149565
73.6473	152.8737	192.2011	269.9643	280.8762	478.8244	567.7624	597.041	760.7587	805.9417	990.949	1049.4757	1091.9014	1127.6401	1271.3933	1371.9827	1417.1125	1441.3355	1493.3553	1498.091	1802.3838	2337.0289	3020.6718	3047.1871	3057.4456	3132.7361	3132.7782
CCC(=O)C#N	CCC(=O)C#N	
InChI=1S/C4H5NO/c1-2-4(6)3-5/h2H2,1H3	InChI=1S/C4H5NO/c1-2-4(6)3-5/h2H2,1H3
