14
gdb 3670	7.44031	1.99441	1.59195	2.1592	60.19	-0.196	0.036	0.232	759.1301	0.115322	-320.785748	-320.778681	-320.777737	-320.81738	25.405	
C	-0.01868879	 1.5031418851	 0.085457538	-0.504041
C	 0.0027835952	 0.0175027129	-0.0710904353	 0.398213
C	-0.1068951459	-0.7848243957	-1.1899650548	-0.367338
C	-0.018346066	-2.1126153221	-0.6989718934	 0.373202
N	-0.1454517184	-3.2955191978	-1.4307728173	-0.58882
N	 0.1402917212	-2.1417846851	 0.6197095632	-0.309375
N	 0.1402273741	-0.8285428253	 0.9776623638	-0.255977
H	 0.9117020069	 1.8808458537	 0.5253696321	 0.133876
H	-0.1438478958	 1.980569025	-0.888406181	 0.14137
H	-0.8439123696	 1.8329340902	 0.7271759789	 0.1354
H	-0.2455607385	-0.4594056579	-2.2085674822	 0.090366
H	 0.3360551083	-3.2653107677	-2.3194910153	 0.242204
H	 0.1644970034	-4.0942536908	-0.8914672946	 0.24687
H	 0.2451836852	-0.5928951845	 1.9487346478	 0.26405
27.8105	193.3829	253.0362	283.3382	338.4002	418.8226	433.2147	602.8	655.6793	682.8553	752.8968	767.4323	798.6635	985.2613	1005.6402	1046.8602	1060.7376	1095.6897	1185.2791	1206.4095	1320.5091	1412.7383	1439.1773	1482.1157	1486.4372	1523.1051	1537.7401	1620.1342	1649.1637	3028.9058	3078.0018	3129.6373	3258.9976	3539.8863	3635.0456	3684.7003
CC1=CC(N)=NN1	Cc1cc(N)n[nH]1	
InChI=1S/C4H7N3/c1-3-2-4(5)7-6-3/h2H,1H3,(H3,5,6,7)	InChI=1S/C4H7N3/c1-3-2-4(5)7-6-3/h2H,1H3,(H3,5,6,7)
