11
gdb 745	9.46656	3.76303	2.73947	4.458	47.81	-0.2576	0.0014	0.2591	465.914	0.086738	-281.469893	-281.46469	-281.463746	-281.498675	17.769	
C	-0.0160935569	 1.4538514989	 0.0130271004	-0.331191
N	 0.0015864476	 0.0071444858	-0.0671505747	 0.084201
C	 0.0872553171	-0.7932652003	-1.1556094668	-0.09864
C	 0.0603106686	-2.0669693641	-0.6409380421	-0.059596
N	-0.0376535066	-1.9859972445	 0.7139619609	-0.187205
N	-0.0736478081	-0.7312834039	 1.0605527162	-0.144108
H	 0.9057091048	 1.8752955326	-0.3973144825	 0.148346
H	-0.8727885988	 1.8607966283	-0.5311592732	 0.148302
H	-0.0975686161	 1.7154169187	 1.0678449764	 0.172806
H	 0.1564606631	-0.4038574374	-2.1574171793	 0.141792
H	 0.1049970353	-3.014505034	-1.1527258554	 0.125292
84.7535	224.9726	362.4846	644.6893	694.278	716.5968	783.5252	859.1701	958.6935	1030.9372	1055.0125	1095.5219	1142.623	1151.344	1275.2011	1306.6963	1336.4837	1442.1854	1485.7627	1487.1329	1514.8736	1531.2121	3050.635	3116.272	3165.0358	3268.2074	3289.4078
CN1C=CN=N1	Cn1ccnn1	
InChI=1S/C3H5N3/c1-6-3-2-4-5-6/h2-3H,1H3	InChI=1S/C3H5N3/c1-6-3-2-4-5-6/h2-3H,1H3
