13
gdb 3741	7.91751	2.07805	1.66727	4.0477	57.06	-0.2081	0.0075	0.2155	719.7891	0.103619	-336.813559	-336.806946	-336.806002	-336.843992	23.605	
C	 0.0054331439	 1.4439817078	 0.0429129566	-0.328855
N	-0.0109957266	 0.0016892918	-0.0739255272	 0.093422
C	 0.0144558006	-0.7644101189	-1.1996483475	-0.184193
C	-0.01364843	-2.0576465435	-0.7193784372	 0.326156
N	-0.0697118092	-3.2717647706	-1.4000677346	-0.591774
N	-0.0557482524	-2.0112224325	 0.6394841404	-0.255213
N	-0.059204401	-0.7596821253	 1.0240856581	-0.149799
H	 0.9192858629	 1.8577080282	-0.3935325808	 0.1438
H	-0.8623124846	 1.8829336394	-0.4580013497	 0.145489
H	-0.0299003292	 1.6802422025	 1.1062654577	 0.169536
H	 0.042086245	-0.3442140486	-2.1900590755	 0.129948
H	 0.5410327718	-3.318786133	-2.204261368	 0.246445
H	 0.1184053487	-4.0411564673	-0.7695933524	 0.255039
103.0502	176.0087	225.9004	293.2227	354.1257	444.0035	620.4648	651.8507	695.8364	715.172	768.4094	800.6955	1043.1238	1050.4625	1061.718	1114.8207	1151.1832	1184.6767	1283.9963	1337.0858	1414.2222	1445.845	1483.1105	1492.2457	1519.7426	1617.1898	1650.7776	3045.7157	3108.5484	3163.6517	3284.7168	3543.883	3638.1409
CN1C=C(N)N=N1	Cn1cc(N)nn1	
InChI=1S/C3H6N4/c1-7-2-3(4)5-6-7/h2H,4H2,1H3	InChI=1S/C3H6N4/c1-7-2-3(4)5-6-7/h2H,4H2,1H3
