13
gdb 2170	3.83701	3.14546	1.83386	3.2874	49.46	-0.2735	0.001	0.2745	656.1992	0.102939	-381.632242	-381.626073	-381.625129	-381.662309	22.573	
O	 0.3004479982	 1.1749032	 0.5895235813	-0.435676
C	-0.0372084786	-0.0677187272	 0.0393466488	 0.02208
C	-1.5261895845	-0.2666388551	-0.2384083601	-0.256197
C	-1.4804945337	-1.2741713163	-1.397679063	-0.090948
O	-0.2632437041	-0.9789889499	-2.1250449391	-0.213184
C	 0.5669052091	-0.2469907296	-1.3539324936	 0.414208
O	 1.6089161878	 0.2130498542	-1.7298994055	-0.3555
H	 1.1445846078	 1.4245524238	 0.1865008355	 0.297786
H	 0.3399870706	-0.8975199815	 0.6641615129	 0.100174
H	-2.0964244734	-0.6342213554	 0.6158310216	 0.122658
H	-1.9529433587	 0.6864733609	-0.5649284684	 0.133068
H	-1.4282873806	-2.3103635924	-1.0457140348	 0.125438
H	-2.3101382399	-1.1823171316	-2.1001243457	 0.136091
125.9296	207.4844	262.2519	381.2594	413.6199	514.1208	580.4147	668.031	728.0787	814.7527	878.1662	950.4176	1005.1761	1038.5774	1105.0554	1152.4809	1195.1656	1195.5578	1236.4455	1273.2171	1303.7032	1370.467	1407.4038	1426.6491	1494.7276	1523.4103	1874.5983	2943.4003	3049.6736	3070.3172	3121.3092	3134.3325	3739.0054
OC1CCOC1=O	O[C@H]1CCOC1=O	
InChI=1S/C4H6O3/c5-3-1-2-7-4(3)6/h3,5H,1-2H2	InChI=1S/C4H6O3/c5-3-1-2-7-4(3)6/h3,5H,1-2H2/t3-/m0/s1
