16
gdb 313	8.21533	2.25023	2.04733	1.398	56.88	-0.253	0.0788	0.3318	659.729	0.142766	-271.62464	-271.618	-271.617056	-271.65458	24.723	
C	-0.0054532732	 1.558596922	 0.0013262461	-0.402654
C	 0.069259052	 0.0401266513	 0.029453318	 0.057598
C	 1.1163820976	-0.6802332966	-0.868998764	-0.243892
C	 1.3469533659	-1.6864952985	 0.274079487	 0.152429
O	 2.6929544867	-2.0683240199	 0.4419815231	-0.432153
C	 0.7186817611	-0.6611343556	 1.2579732288	-0.270405
H	 0.9801289567	 2.0026090782	 0.1810831529	 0.11241
H	-0.3626611925	 1.9219085414	-0.9690094658	 0.113231
H	-0.6878100961	 1.9385349587	 0.7701429193	 0.112309
H	-0.9255943248	-0.3820367419	-0.1524187525	 0.069265
H	 0.8025461687	-1.0631006322	-1.8428025031	 0.093884
H	 2.0134342456	-0.0655743889	-0.9971847028	 0.107955
H	 0.6964788651	-2.5663984521	 0.1606717733	 0.062296
H	 2.7421414052	-2.6864118566	 1.1781437957	 0.279723
H	 1.5080465792	-0.0389516944	 1.6930266046	 0.10118
H	 0.0671948328	-1.0288933848	 2.0554355894	 0.086824
102.977	225.9006	261.2522	297.3333	393.6928	398.2639	457.1264	567.5275	777.0085	808.8104	886.3914	922.8546	947.9049	964.5175	1022.7341	1068.2209	1125.8105	1139.8921	1176.5929	1218.4009	1226.4319	1257.1512	1267.3664	1283.6095	1333.1692	1374.6161	1410.7256	1430.9967	1469.9215	1494.5366	1497.2118	1502.2621	2986.8517	3022.3157	3035.8953	3044.0749	3054.441	3089.045	3091.6138	3103.5318	3113.1901	3814.9901
CC1CC(O)C1	C[C@H]1C[C@@H](O)C1	
InChI=1S/C5H10O/c1-4-2-5(6)3-4/h4-6H,2-3H2,1H3	InChI=1S/C5H10O/c1-4-2-5(6)3-4/h4-6H,2-3H2,1H3/t4-,5+
