13
gdb 1774	5.09165	1.93539	1.76647	2.3038	56.83	-0.2422	0.0231	0.2653	731.6978	0.098941	-344.390227	-344.382893	-344.381949	-344.420997	27.548	
O	 0.0584252487	 1.3655121851	-0.0335441688	-0.429816
C	 0.0650872497	-0.0185445719	 0.0302677131	 0.122881
C	-0.4289852158	-0.7410723574	 1.2570879608	-0.373619
C	-1.2694115649	-0.743851579	-0.021211889	 0.110828
O	-2.34175957	 0.1662059598	-0.0752948615	-0.453075
C	-1.4340050238	-1.9555407852	-0.7730013553	 0.319004
C	-1.576145189	-2.9794607077	-1.3884763055	-0.458359
H	-0.8704458181	 1.6359957592	-0.0308135997	 0.298193
H	 0.89162393	-0.4543998301	-0.520801556	 0.120229
H	 0.0465006342	-1.6693716192	 1.5522991271	 0.128215
H	-0.809680356	-0.1243124951	 2.0646734303	 0.120433
H	-3.0518129589	-0.1624536434	 0.4868229508	 0.29662
H	-1.6991447661	-3.876244805	-1.9437149263	 0.198465
143.1014	165.1754	259.3093	294.2716	317.3582	392.2276	443.932	484.8903	545.9146	576.5307	599.3284	681.063	709.3948	820.37	878.1125	923.2477	1018.6162	1040.8774	1098.2904	1150.1303	1228.374	1253.5973	1313.9021	1372.0223	1427.2848	1467.4737	2231.2592	3132.9646	3172.742	3232.5882	3501.8946	3747.6483	3806.1464
OC1CC1(O)C#C	O[C@H]1C[C@]1(O)C#C	
InChI=1S/C5H6O2/c1-2-5(7)3-4(5)6/h1,4,6-7H,3H2	InChI=1S/C5H6O2/c1-2-5(7)3-4(5)6/h1,4,6-7H,3H2/t4-,5+/m0/s1
