16
gdb 2163	3.76539	2.98471	1.75121	3.6417	61.72	-0.2337	0.0377	0.2714	726.7783	0.138617	-325.830752	-325.823815	-325.822871	-325.861628	24.956	
C	-0.0419934645	 1.4065061953	 0.132270479	-0.343306
N	-0.0211023909	-0.0321842153	 0.0268522652	-0.06054
C	-1.1976221011	-0.8056820973	-0.324519775	-0.160837
C	-0.7437273041	-2.2656985434	-0.1069796955	-0.222362
C	 0.7813679973	-2.2068312932	-0.2816497951	-0.326923
C	 1.1464201077	-0.7536211547	 0.0284886003	 0.406951
O	 2.2562689529	-0.3004752123	 0.2201094964	-0.39397
H	 0.9725489122	 1.7345525883	 0.3654704262	 0.164866
H	-0.3632596625	 1.8741270575	-0.8083890983	 0.119496
H	-0.7232795576	 1.7334729909	 0.92695418	 0.121263
H	-2.0490286114	-0.5315848803	 0.3092775792	 0.108789
H	-1.4955916814	-0.6191179711	-1.3685414748	 0.101776
H	-0.9927787607	-2.5769483572	 0.9116694659	 0.116898
H	-1.2376486935	-2.955195125	-0.7942299784	 0.109437
H	 1.3371324385	-2.8875843405	 0.3652941314	 0.129938
H	 1.0892328191	-2.4149028218	-1.3131521366	 0.128524
147.1804	154.1696	162.0873	205.0013	306.8565	470.6806	561.3084	617.8201	661.8553	747.8332	857.1486	904.2734	932.958	999.2366	1033.2677	1087.0401	1126.0942	1154.4825	1192.2167	1218.9	1244.5191	1291.0148	1310.1349	1321.5086	1346.228	1431.091	1450.8914	1471.4378	1493.7112	1498.4383	1514.6706	1544.2526	1807.7525	2976.724	3008.0571	3043.8456	3049.6999	3058.8955	3065.9935	3112.1206	3122.9949	3141.5155
CN1CCCC1=O	CN1CCCC1=O	
InChI=1S/C5H9NO/c1-6-4-2-3-5(6)7/h2-4H2,1H3	InChI=1S/C5H9NO/c1-6-4-2-3-5(6)7/h2-4H2,1H3
