16
gdb 1480	4.80946	1.58999	1.39529	4.2236	58.51	-0.2446	0.0375	0.2821	888.8399	0.135832	-362.938898	-362.930544	-362.9296	-362.972383	28.787	
C	 0.0121663811	 1.7027424143	-0.1159648582	-0.387491
C	 0.0139553139	 0.172116193	-0.0052137981	 0.052911
C	 0.6629820607	-0.498521456	-1.2146109401	-0.093038
O	 2.044639888	-0.1506965654	-1.2039881338	-0.427118
N	 0.703248685	-0.2811415875	 1.1973102427	-0.273152
C	 0.0639868861	-0.5777579973	 2.3552910564	 0.155969
O	-1.136932648	-0.5197898036	 2.5279067143	-0.334175
H	 1.0316753375	 2.0840730919	-0.2174647363	 0.128907
H	-0.5628398158	 2.0238274582	-0.9909072391	 0.112518
H	-0.4440586686	 2.1418705567	 0.7743905355	 0.134192
H	-1.0165990236	-0.1838324886	 0.0804838324	 0.116951
H	 0.5313777768	-1.5877512906	-1.1431234454	 0.098683
H	 0.1706191172	-0.1514124808	-2.1350159708	 0.095844
H	 2.4876385871	-0.6295502126	-1.9097157315	 0.294941
H	 1.7090614026	-0.3366513726	 1.1503445119	 0.253657
H	 0.7724755099	-0.8940714789	 3.1472947901	 0.070402
25.9813	120.0002	189.832	224.3703	237.9043	257.6871	273.9741	363.8163	462.6668	585.7271	613.0549	752.2181	867.5355	930.4552	945.0069	999.4388	1032.9718	1112.7964	1139.3295	1153.305	1199.8605	1243.7782	1272.1569	1345.2843	1376.8851	1403.2148	1427.7679	1451.9066	1491.392	1496.0805	1515.3713	1523.3895	1798.8578	2929.4077	2987.2356	3025.6523	3042.9322	3084.1813	3114.8126	3133.2163	3631.1271	3840.6748
CC(CO)NC=O	C[C@@H](CO)NC=O	
InChI=1S/C4H9NO2/c1-4(2-6)5-3-7/h3-4,6H,2H2,1H3,(H,5,7)	InChI=1S/C4H9NO2/c1-4(2-6)5-3-7/h3-4,6H,2H2,1H3,(H,5,7)/t4-/m0/s1
