14
gdb 4387	3.82535	1.95156	1.30277	6.3928	67.53	-0.2336	-0.0533	0.1802	887.4296	0.109187	-378.797983	-378.791124	-378.79018	-378.829245	25.285	
C	-0.0146425929	 1.5263827703	 0.0448361441	-0.496608
C	-0.0033477809	 0.0315424143	-0.0607031058	 0.401502
C	-0.0377072673	-0.6749165191	-1.2305141278	-0.235789
C	-0.0191607941	-2.0912304603	-1.1290769432	 0.039239
N	 0.0278195402	-2.780114315	-0.0209676319	-0.323215
C	 0.0640394884	-2.0983968176	 1.1857716134	 0.436704
O	 0.1081790278	-2.6118477079	 2.2814547565	-0.382724
N	 0.0453931939	-0.6794328912	 1.0926206195	-0.38502
H	 0.8875138324	 1.8868021734	 0.5517609672	 0.153239
H	-0.0608020337	 1.9821837365	-0.9449607101	 0.150601
H	-0.8783184802	 1.8685327535	 0.625937176	 0.15295
H	-0.0772758322	-0.1758840552	-2.1883493177	 0.106004
H	-0.0459468109	-2.6751743536	-2.0504650703	 0.120308
H	 0.0722820494	-0.2083712081	 1.9872732202	 0.262808
110.8935	136.2696	194.4159	302.3849	443.4267	506.0727	530.6726	593.1045	596.4285	711.1336	777.031	798.1245	812.743	894.5584	1007.9614	1013.0305	1048.1185	1064.9627	1081.27	1142.8937	1228.1818	1365.873	1412.0059	1414.2418	1461.9557	1479.1411	1499.8646	1596.7319	1670.0719	1813.4204	3037.4042	3093.5772	3117.9156	3146.1982	3231.8007	3593.5939
CC1=CC=NC(=O)N1	Cc1ccnc(=O)[nH]1	
InChI=1S/C5H6N2O/c1-4-2-3-6-5(8)7-4/h2-3H,1H3,(H,6,7,8)	InChI=1S/C5H6N2O/c1-4-2-3-6-5(8)7-4/h2-3H,1H3,(H,6,7,8)
