17
gdb 1314	3.23345	2.60446	2.10715	1.0048	60.09	-0.2515	0.0751	0.3266	720.2405	0.146617	-346.844016	-346.836105	-346.835161	-346.875318	29.716	
C	 0.3365075027	 1.4703000416	-0.0837580622	-0.441809
C	-0.0168213264	-0.0108336933	-0.0146200457	 0.390602
O	-1.4183810491	-0.2055076311	 0.0132796978	-0.479033
C	 0.7984618641	-0.8977655464	-1.0111508897	-0.277356
C	 1.7752668392	-1.240674338	 0.1465368873	-0.271848
C	 0.6809952809	-0.7647941501	 1.1410381936	 0.115396
O	 1.0389194824	 0.0348013481	 2.2426847132	-0.432878
H	 1.4177239563	 1.6305158324	-0.069844614	 0.124112
H	-0.0534449178	 1.90502389	-1.0130316954	 0.098546
H	-0.0959592169	 2.0023132911	 0.7669553605	 0.136233
H	-1.8174969601	 0.3775470646	-0.6410246106	 0.27306
H	 0.2040966934	-1.7595369798	-1.3234397784	 0.106167
H	 1.2145349304	-0.4065227212	-1.8940301303	 0.093473
H	 2.1231669018	-2.2721888782	 0.23179423	 0.094791
H	 2.6377656538	-0.569452164	 0.1735909641	 0.107277
H	 0.0361581448	-1.6019780825	 1.4403569463	 0.078344
H	 1.3660789106	-0.5380266431	 2.9424193034	 0.284923
134.8896	194.4747	230.2401	238.8746	251.23	283.8634	354.4327	404.5854	462.3789	545.7829	611.3134	732.3961	800.3481	887.5358	898.1437	943.2359	955.6456	990.0438	1087.8422	1108.8476	1143.4984	1160.285	1189.7842	1196.4416	1231.4983	1259.5871	1284.9444	1313.14	1376.6619	1407.1283	1435.808	1476.159	1487.4195	1494.0645	1505.0036	3016.1873	3025.8365	3061.5015	3067.1968	3101.8833	3112.2815	3127.3912	3132.1124	3806.8266	3828.7197
CC1(O)CCC1O	C[C@@]1(O)CC[C@H]1O	
InChI=1S/C5H10O2/c1-5(7)3-2-4(5)6/h4,6-7H,2-3H2,1H3	InChI=1S/C5H10O2/c1-5(7)3-2-4(5)6/h4,6-7H,2-3H2,1H3/t4-,5-/m1/s1
