13
gdb 2117	3.75679	3.2632	1.79525	5.6629	56.69	-0.2387	-0.0521	0.1866	668.1231	0.103416	-340.663148	-340.656855	-340.655911	-340.693538	22.866	
N	-0.0721303206	 1.3145087007	 0.0472397993	-0.514201
C	 0.0134567237	 0.0442499117	 0.0003973971	 0.269456
N	 1.0924762583	-0.7955463004	-0.1592683599	-0.330324
C	 0.8147658548	-2.211401899	 0.0778656964	-0.17785
C	-0.7133610238	-2.3023248232	-0.069147749	-0.320859
C	-1.2071690658	-0.8656041865	 0.1016195824	 0.374919
O	-2.3377287679	-0.5096764349	 0.2821156648	-0.28034
H	 0.846969211	 1.7576027	-0.0258141986	 0.2048
H	 2.0321431536	-0.4409911256	-0.0786133996	 0.245827
H	 1.3464481835	-2.8358412038	-0.6464380734	 0.120093
H	 1.1318691993	-2.5232650087	 1.0825900911	 0.117137
H	-0.9976522804	-2.6358938049	-1.0733672748	 0.148902
H	-1.1899850657	-2.9723884155	 0.6478708944	 0.14244
93.8243	133.4836	330.141	375.2098	456.6157	519.5782	601.1359	658.0352	713.8423	742.6296	845.2086	864.0169	958.1653	1039.0766	1056.8375	1092.3374	1150.0394	1195.4597	1224.9786	1275.8178	1313.2398	1386.024	1439.0391	1454.9218	1536.0559	1739.0661	1866.2999	3005.798	3056.7897	3071.4591	3128.1118	3438.6281	3632.7059
N=C1NCCC1=O	[NH][C]1NCCC1=O	
InChI=1S/C4H6N2O/c5-4-3(7)1-2-6-4/h1-2H2,(H2,5,6)	InChI=1S/C4H6N2O/c5-4-3(7)1-2-6-4/h1-2H2,(H2,5,6)
