15
gdb 2419	4.26017	3.42726	2.4508	1.8455	60.63	-0.2297	0.0821	0.3118	600.469	0.124987	-308.427345	-308.421584	-308.42064	-308.456472	22.935	
C	-0.0064640306	 1.4887868812	-0.0170284296	-0.524749
C	 0.0396646161	-0.0096557009	-0.0855367455	 0.312382
C	 0.559669504	-0.9535324929	-1.1970502884	-0.319275
C	 0.0718435882	-1.94019939	-0.1144852871	-0.091745
C	 0.5086411052	-0.9940299188	 1.0427175195	 0.058805
O	-0.7819953514	-1.0181170562	 1.7239493157	-0.330841
C	-1.1059046858	-1.0098173681	 0.3007813778	 0.058803
H	 0.9970168717	 1.921731359	-0.0909919241	 0.121063
H	-0.6106084356	 1.9060261034	-0.8299280116	 0.121062
H	-0.4468887014	 1.8048040725	 0.9344471403	 0.135777
H	 0.0054300539	-0.948821291	-2.1404866144	 0.097164
H	 1.6363410158	-0.9328766782	-1.3910290347	 0.097164
H	 0.0758930529	-3.0293316324	-0.1001213408	 0.082762
H	 1.4190345899	-0.9909004895	 1.6427359989	 0.090815
H	-2.1540439686	-1.0258401581	 0.000788616	 0.090815
230.3811	239.4662	291.074	404.2789	527.3651	676.9427	719.9334	768.0602	812.6574	833.8142	870.434	879.3695	916.9261	942.7563	983.7664	1023.9118	1065.3956	1083.8846	1132.7904	1153.3979	1157.7012	1169.3755	1184.5221	1224.6072	1261.0976	1307.8668	1362.1381	1407.2435	1489.6332	1491.3521	1517.8833	3028.5825	3045.1413	3093.7887	3099.5779	3103.2498	3113.1726	3114.8719	3134.4368
CC12CC3C1OC23	C[C@@]12C[C@H]3[C@@H]1O[C@@H]23	
InChI=1S/C6H8O/c1-6-2-3-4(6)7-5(3)6/h3-5H,2H2,1H3	InChI=1S/C6H8O/c1-6-2-3-4(6)7-5(3)6/h3-5H,2H2,1H3/t3-,4-,5+,6+
