19
gdb 3013	5.45955	1.55048	1.37647	1.6625	67.32	-0.2612	0.0863	0.3475	947.125	0.170474	-310.903412	-310.895116	-310.894172	-310.936101	29.897	
C	 0.1590135144	 1.4796378057	-0.0566217017	-0.394079
C	-0.0668667937	-0.0349065623	-0.0713706185	-0.159302
C	-1.5437894426	-0.4720056044	 0.048728719	 0.006801
C	-2.3811778972	-0.0535348073	-1.1659947075	-0.410349
C	-1.5864936284	-1.9694995168	 0.3078507303	 0.095309
C	-2.6350324905	-2.8863864266	-0.15700893	-0.190554
O	-1.3612325305	-2.8423867366	-0.8053282211	-0.238709
H	 1.2283032215	 1.7123384643	-0.0757195287	 0.114036
H	-0.2964621042	 1.974184613	-0.9198482995	 0.119621
H	-0.2627981663	 1.9341285674	 0.8473019907	 0.111826
H	 0.3525832623	-0.4685884276	-0.9878284898	 0.1108
H	 0.4951254345	-0.482239649	 0.7588143905	 0.091529
H	-1.9607457208	 0.0082119902	 0.947278957	 0.072332
H	-2.0738551512	-0.61688212	-2.0523956233	 0.134832
H	-3.4478765805	-0.2311319743	-1.0004505728	 0.11139
H	-2.2614799727	 1.0113936354	-1.3787412321	 0.115016
H	-1.0392073211	-2.2731594644	 1.2040042025	 0.085311
H	-2.8397151102	-3.7954747701	 0.4077417762	 0.110651
H	-3.4692374528	-2.5149877965	-0.7476894311	 0.11354
67.0687	89.9435	198.8607	211.7726	228.5887	292.6037	321.5621	393.4323	445.3023	599.4161	752.0751	781.3928	841.1908	864.6584	947.9911	969.1285	974.4629	1037.1419	1046.9798	1078.166	1114.7444	1157.3888	1164.3284	1181.9655	1197.0644	1285.2326	1299.9669	1321.2468	1369.5729	1382.7104	1401.5278	1415.1951	1440.2774	1485.5558	1494.7731	1502.6448	1507.839	1513.7003	1530.9884	2990.7823	3018.6837	3032.3606	3045.6194	3055.6249	3074.6038	3088.6199	3097.8866	3105.8839	3111.8328	3123.7709	3175.4256
CCC(C)C1CO1	CC[C@@H](C)[C@H]1CO1	
InChI=1S/C6H12O/c1-3-5(2)6-4-7-6/h5-6H,3-4H2,1-2H3	InChI=1S/C6H12O/c1-3-5(2)6-4-7-6/h5-6H,3-4H2,1-2H3/t5-,6-/m1/s1
