15
gdb 3360	4.58304	3.11862	2.37888	0.8175	55.74	-0.2493	0.0824	0.3317	601.535	0.127402	-345.639354	-345.633745	-345.632801	-345.668723	21.504	
C	 0.1023214067	 1.4045347609	 0.3627736282	-0.104239
O	 1.5027636394	 1.4598549605	 0.0072054544	-0.298935
C	 1.4534311763	 0.1515771097	-0.6100232852	 0.100538
C	 2.2297138407	-0.9097298889	 0.160910628	-0.237471
C	 1.288572452	-1.204115313	 1.3402674612	-0.088682
O	-0.0340663768	-1.0658497282	 0.8135319962	-0.261549
C	-0.0169082394	-0.0445660073	-0.1583888836	 0.069542
H	-0.0664918297	 1.5317869932	 1.4382220376	 0.109001
H	-0.4873328167	 2.1454269271	-0.1917214599	 0.100959
H	 1.6833520574	 0.1972688282	-1.6786191135	 0.077175
H	 2.3564717243	-1.7991798755	-0.4654024597	 0.107919
H	 3.2140126349	-0.5528721292	 0.4725301655	 0.117302
H	 1.3786398032	-2.2156042278	 1.7428553771	 0.112383
H	 1.4581461357	-0.4878845251	 2.1566246698	 0.105742
H	-0.8006223679	-0.2488531546	-0.8887677661	 0.090312
139.563	221.0562	369.7522	415.259	632.1781	658.8428	804.365	832.5676	859.958	902.9052	915.3395	964.1951	976.6289	1017.4093	1031.8397	1052.9949	1102.6692	1135.3886	1171.4874	1191.7915	1227.3409	1241.6739	1273.7316	1308.6689	1324.8733	1350.8569	1361.2718	1396.0295	1464.894	1510.934	1521.4136	3007.5837	3016.7094	3051.2593	3068.0642	3070.0008	3102.0974	3110.1869	3119.3324
C1OC2CCOC12	C1O[C@H]2CCO[C@@H]12	
InChI=1S/C5H8O2/c1-2-6-5-3-7-4(1)5/h4-5H,1-3H2	InChI=1S/C5H8O2/c1-2-6-5-3-7-4(1)5/h4-5H,1-3H2/t4-,5-/m0/s1
