17
gdb 1894	4.38502	2.08807	1.76784	2.5769	59.69	-0.2565	0.0723	0.3287	764.2333	0.149223	-346.861635	-346.854448	-346.853504	-346.893055	27.227	
O	-0.2111992177	 1.4491601606	 0.2381115846	-0.437733
C	-0.0055998443	 0.0514890138	 0.0343072708	 0.126013
C	 0.7004506103	-0.5953557938	 1.2448893235	-0.230421
C	-0.4455185573	-0.8064290684	 2.2410815009	-0.235457
C	-1.573849405	-1.3542232489	 1.3466477177	 0.14827
O	-2.886189464	-1.1349736832	 1.8388359186	-0.438292
C	-1.4014819627	-0.6080843312	 0.0030031725	-0.209612
H	 0.6535129855	 1.8667111847	 0.3091828833	 0.277521
H	 0.5501179564	-0.1125070778	-0.899446371	 0.056037
H	 1.1327182864	-1.5596513708	 0.9472044256	 0.094248
H	 1.5185944442	 0.0228999695	 1.6289907367	 0.085868
H	-0.1926512446	-1.4692824804	 3.0744002636	 0.081031
H	-0.7677211468	 0.1577943391	 2.6481319952	 0.116886
H	-1.4093316405	-2.4329229713	 1.1895698548	 0.058055
H	-2.9808518172	-1.6259536195	 2.6610744841	 0.278636
H	-2.1622441261	 0.1717314775	-0.0760233442	 0.132653
H	-1.5175346865	-1.2790774701	-0.8511165366	 0.096296
46.7545	191.2932	281.9689	324.0911	363.7734	393.1891	424.4622	473.3244	550.2212	693.3262	812.5843	831.1338	874.8477	925.6329	958.514	999.7642	1017.586	1040.9067	1067.3706	1106.6352	1185.3726	1194.417	1212.6428	1240.9442	1276.2449	1300.661	1310.7465	1340.0516	1351.6296	1378.4894	1422.8847	1433.3428	1473.7966	1480.976	1496.4803	2956.4402	2994.5621	3027.6162	3047.3772	3073.2345	3076.0708	3099.117	3124.446	3809.491	3817.0714
OC1CCC(O)C1	O[C@H]1CC[C@@H](O)C1	
InChI=1S/C5H10O2/c6-4-1-2-5(7)3-4/h4-7H,1-3H2	InChI=1S/C5H10O2/c6-4-1-2-5(7)3-4/h4-7H,1-3H2/t4-,5+
