12
gdb 886	7.11928	2.15393	1.67086	5.1359	52.05	-0.2139	0.0278	0.2418	700.8791	0.090834	-360.574465	-360.568217	-360.567273	-360.604415	22.67	
C	-0.0097415312	 1.5211270029	 0.049563521	-0.499353
C	-0.0050014289	 0.0371034457	-0.0400667044	 0.294421
C	-0.0635378278	-0.7934802011	-1.0900995079	-0.109376
O	-0.0288074289	-2.1084217776	-0.6702944876	-0.207344
C	 0.0561826334	-2.123008543	 0.7087802581	 0.486969
O	 0.1037808306	-3.1148432515	 1.3828284703	-0.401452
N	 0.0694703165	-0.795860473	 1.0825958756	-0.416427
H	 0.9033301289	 1.8988782684	 0.5247601693	 0.141004
H	-0.0751819768	 1.9564801865	-0.9498995699	 0.146879
H	-0.8617938279	 1.8865484854	 0.6349453293	 0.14097
H	-0.1297576827	-0.6209100778	-2.1496900917	 0.15001
H	 0.1261232347	-0.5136432947	 2.045089638	 0.273699
161.4161	177.9882	283.2146	293.6043	421.9406	526.8225	609.5242	620.9177	709.8678	762.3327	771.4482	924.0911	997.6768	1021.5054	1068.6371	1098.5236	1181.6474	1245.4214	1338.4366	1413.323	1428.3821	1475.1809	1497.2305	1718.7963	1898.0774	3026.8903	3076.3319	3129.2111	3299.2535	3693.9495
CC1=COC(=O)N1	Cc1coc(=O)[nH]1	
InChI=1S/C4H5NO2/c1-3-2-7-4(6)5-3/h2H,1H3,(H,5,6)	InChI=1S/C4H5NO2/c1-3-2-7-4(6)5-3/h2H,1H3,(H,5,6)
