18
gdb 4167	2.96242	1.54009	1.17212	1.726	71.3	-0.2318	-0.0001	0.2316	1067.8567	0.153374	-381.056749	-381.047984	-381.04704	-381.090466	31.662	
C	-0.4833218571	 1.6673384277	 0.0097512717	-0.375123
C	-0.0547107974	 0.1885004618	 0.0594648924	-0.275053
C	-1.2326769694	-0.7505519944	-0.0134499807	 0.360996
N	-1.8226466306	-1.1015794893	-1.0931306165	-0.19726
O	-1.2706616235	-0.48991127	-2.2294105817	-0.39842
C	-1.7972820746	-1.3009919281	 1.2513284174	-0.074831
C	-3.1763827822	-0.8991176702	 1.6737803562	-0.222554
N	-2.9012853012	-2.2623476321	 1.2166526386	-0.313427
H	 0.3915260136	 2.321142369	 0.0730445528	 0.117066
H	-1.0055893881	 1.8804348438	-0.9257493079	 0.140298
H	-1.1508206714	 1.9144224096	 0.8409656368	 0.120321
H	 0.6126050388	-0.022680248	-0.7809460865	 0.13
H	 0.4991749613	-0.0055415799	 0.9838512309	 0.101924
H	-1.7747240642	-0.8942977507	-2.9432004561	 0.307204
H	-1.0587221674	-1.4876589453	 2.0279707168	 0.096973
H	-3.4092254457	-0.800394132	 2.7307582187	 0.119117
H	-3.7146510189	-0.2251201192	 1.0127398158	 0.118903
H	-3.1905041118	-2.3598322129	 0.2446374214	 0.243865
64.2866	75.1344	173.2809	207.8599	217.0313	267.7274	329.1642	383.2262	422.6865	451.723	623.975	672.3966	761.0173	809.9481	841.4303	889.7772	960.0051	982.5622	989.1256	1021.1404	1076.077	1092.8363	1112.1446	1140.6824	1187.852	1219.4863	1273.6243	1294.3333	1316.7743	1351.8624	1390.1804	1403.333	1433.7037	1483.6645	1497.4526	1501.0534	1509.9628	1719.2634	3043.5233	3048.147	3094.0956	3105.7949	3112.8028	3129.7175	3133.0312	3196.868	3489.0828	3822.6248
CCC(=NO)C1CN1	CCC(=NO)[C@H]1CN1	
InChI=1S/C5H10N2O/c1-2-4(7-8)5-3-6-5/h5-6,8H,2-3H2,1H3	InChI=1S/C5H10N2O/c1-2-4(7-8)5-3-6-5/h5-6,8H,2-3H2,1H3/t5-/m1/s1
