17
gdb 1177	4.01944	1.84116	1.71261	1.1577	65.99	-0.2629	0.0382	0.3012	834.2194	0.144853	-309.689486	-309.680724	-309.679779	-309.721766	32.264	
C	-0.0009250806	 1.549999988	 0.1445729802	-0.39922
C	-0.0424720148	 0.0306475623	-0.0339345515	-0.18324
C	 0.696395291	-0.4827327493	-1.2981962522	 0.163381
C	 0.1050809412	 0.0846800157	-2.5959713396	-0.397992
O	 2.064776082	-0.0544774174	-1.2858984944	-0.44596
C	 0.6347869784	-1.9536529912	-1.3153641953	 0.321587
C	 0.601028594	-3.1555003275	-1.2931509465	-0.481033
H	 1.0278991573	 1.9155635634	 0.0914600542	 0.130523
H	-0.5841746216	 2.0685902388	-0.6220565914	 0.119047
H	-0.4159355372	 1.8298163314	 1.1174099105	 0.111129
H	 0.4196974089	-0.4560794232	 0.8340307569	 0.094765
H	-1.077526761	-0.3282770584	-0.0673471048	 0.105987
H	 0.235009636	 1.1689290876	-2.6187524968	 0.128
H	 0.6229455103	-0.34360637	-3.4564052013	 0.132689
H	-0.9593227001	-0.1513582251	-2.6701795457	 0.121193
H	 2.5148564564	-0.5398264958	-0.585665658	 0.282081
H	 0.5715697798	-4.2172660792	-1.2882069343	 0.197063
104.2807	150.0241	176.5209	206.5904	257.8431	287.9867	297.6837	357.4786	395.8355	465.6964	549.1061	569.0778	629.1411	662.5097	710.0251	785.8554	904.1583	932.1248	1001.1512	1006.2988	1067.6658	1138.7666	1185.9389	1192.62	1289.2814	1354.8122	1378.595	1405.5121	1410.0144	1474.9745	1482.9269	1494.1163	1504.0523	1512.3843	2228.0501	3027.562	3044.8775	3056.6436	3067.2715	3109.1828	3125.052	3136.6388	3139.6431	3500.0839	3807.2259
CCC(C)(O)C#C	CC[C@@](C)(O)C#C	
InChI=1S/C6H10O/c1-4-6(3,7)5-2/h1,7H,5H2,2-3H3	InChI=1S/C6H10O/c1-4-6(3,7)5-2/h1,7H,5H2,2-3H3/t6-/m0/s1
