14
gdb 3629	4.62883	4.40183	3.38226	1.5918	58.27	-0.2245	0.0769	0.3013	491.3825	0.116509	-287.377993	-287.373525	-287.372581	-287.405796	19.106	
C	-0.0039564177	 1.4875589307	 0.0659912685	-0.168806
C	 1.468833488	 1.8335973074	-0.0500808272	-0.085506
C	 2.2741550526	 0.7067421986	 0.5564996827	-0.088332
C	 2.1297974553	 0.8130913098	-0.9489285402	-0.088449
C	 1.1288775968	-0.3788367524	-0.9225686843	-0.059136
C	 1.2697399402	-0.4825046186	 0.5548542491	-0.059293
N	 0.0194336246	 0.0221700384	-0.039588872	-0.1172
H	-0.4401762903	 1.7817209037	 1.0260855045	 0.106731
H	-0.6091238133	 1.90652054	-0.7444694011	 0.106736
H	 1.8419373864	 2.8496976328	-0.0139465513	 0.090208
H	 3.1484213455	 0.824923694	 1.1796120584	 0.089569
H	 2.8719100962	 1.0286763409	-1.7034946334	 0.089541
H	 0.9645826142	-1.1221545025	-1.6917917024	 0.091982
H	 1.2431913216	-1.3272059828	 1.2308732588	 0.091956
407.0487	550.3899	710.2531	724.3877	761.597	775.9196	796.6357	815.4099	836.9863	882.1517	910.0055	944.3907	963.063	994.5525	996.1494	1019.296	1028.5641	1046.7872	1079.2699	1093.7486	1196.3522	1208.4575	1216.9054	1255.8245	1256.0101	1300.2957	1304.3261	1389.2484	1496.8854	3048.4993	3094.7924	3189.3457	3196.5804	3201.8267	3218.8256	3230.5967
C1C2C3C2C2C3N12	C1[C@H]2[C@@H]3[C@H]2[C@H]2[C@@H]3N12	
InChI=1S/C6H7N/c1-2-3-4(2)6-5(3)7(1)6/h2-6H,1H2	InChI=1S/C6H7N/c1-2-3-4(2)6-5(3)7(1)6/h2-6H,1H2/t2-,3+,4-,5+,6-,7?
