14
gdb 102	7.53724	4.74514	3.54049	1.2483	49.79	-0.2199	0.0931	0.313	432.5081	0.125556	-212.438188	-212.432286	-212.431342	-212.466725	20.993	
C	-0.1703456117	 1.5576573517	-0.1006546977	-0.411308
C	 0.0107525603	 0.0557463843	-0.0522583305	 0.041128
C	 0.7179423947	-0.678024249	-1.1420415025	-0.247414
N	 1.2981157431	-0.5977750758	 0.1938686593	-0.075731
C	 2.500472896	 0.2025692263	 0.3642881779	-0.308746
H	 0.6087670274	 2.0571791316	-0.6811930105	 0.11986
H	-1.1323869824	 1.799571807	-0.5648912719	 0.12272
H	-0.1735094934	 1.9894632326	 0.906590277	 0.121569
H	-0.8101044058	-0.4614805125	 0.444273961	 0.0874
H	 0.3913610613	-1.6627461835	-1.4677117054	 0.110492
H	 1.166684835	-0.0690873511	-1.927761259	 0.099958
H	 2.58340476	 1.0674544535	-0.3126225501	 0.096759
H	 2.5514365215	 0.5689274698	 1.3950263822	 0.120277
H	 3.3718501241	-0.4376946149	 0.1920186202	 0.123037
171.127	186.1316	281.0474	316.9815	428.3661	488.131	738.3394	775.5868	900.6721	948.2249	1033.788	1047.0863	1111.2967	1130.4484	1142.5834	1168.3117	1196.1422	1207.1925	1341.6638	1400.357	1421.1334	1450.0062	1485.9557	1487.7366	1500.6526	1509.641	1515.5573	2975.3833	3034.7406	3062.9049	3079.1758	3091.5126	3096.9676	3097.8029	3124.2828	3165.9234
CC1CN1C	C[C@H]1CN1C	
InChI=1S/C4H9N/c1-4-3-5(4)2/h4H,3H2,1-2H3	InChI=1S/C4H9N/c1-4-3-5(4)2/h4H,3H2,1-2H3/t4-,5?/m0/s1
