14
gdb 3441	4.45824	3.15609	2.24655	2.5757	57.15	-0.2363	0.0016	0.2378	603.1419	0.115766	-324.547436	-324.541793	-324.540849	-324.576601	22.416	
O	 0.0576424847	 1.3973781346	-0.0893691016	-0.437504
C	 0.0502823182	-0.0195639166	-0.0479593169	 0.106792
C	 0.6988875766	-0.5722368217	 1.2177630701	-0.11558
C	-0.1442856837	-1.3048228401	 1.9462593493	-0.052953
C	-1.4861813102	-1.367400844	 1.2862477277	-0.076703
N	-2.1153410547	-0.0139454804	 1.1631493222	-0.347242
C	-1.3683125979	-0.6017224423	 0.0265739135	-0.075776
H	-0.5708736801	 1.6660514871	 0.5961368947	 0.287343
H	 0.5722084764	-0.3471988061	-0.9542537961	 0.087123
H	 1.711103305	-0.2996050737	 1.4933035101	 0.104169
H	 0.0680921644	-1.7617459471	 2.9055366096	 0.102495
H	-2.1351704738	-2.2297845064	 1.3903011946	 0.093789
H	-3.1126744473	-0.1242626879	 0.9876759253	 0.232385
H	-1.9046002576	-0.8637598255	-0.8779377724	 0.091663
167.8025	272.5684	416.7172	487.1579	505.0803	587.8762	701.7423	759.4471	803.827	820.5449	867.6733	899.3398	924.7818	949.592	976.2887	1003.8519	1073.7626	1077.455	1116.1325	1150.2903	1156.2076	1243.7791	1287.472	1303.0687	1331.1379	1382.129	1405.4877	1444.5811	1667.9132	3047.4106	3172.0178	3182.9166	3192.6089	3216.8734	3481.0005	3739.0323
OC1C=CC2NC12	O[C@H]1C=C[C@H]2N[C@@H]12	
InChI=1S/C5H7NO/c7-4-2-1-3-5(4)6-3/h1-7H	InChI=1S/C5H7NO/c7-4-2-1-3-5(4)6-3/h1-7H/t3-,4+,5-/m1/s1
