13
gdb 1441	8.90421	1.31044	1.16982	4.03	56.49	-0.2491	-0.0164	0.2327	951.6106	0.097813	-344.419977	-344.411819	-344.410875	-344.45308	27.616	
O	 0.1441301525	 1.3817228933	 0.0963317311	-0.392665
C	-0.0242875606	 0.0058103574	-0.1039164759	-0.172444
C	-1.4783652032	-0.3780277633	 0.1564358423	 0.383721
O	-2.3479979296	 0.4286070965	 0.332782885	-0.254256
C	-1.7138276894	-1.9018959454	 0.1861608838	-0.485738
C	-3.0994493368	-2.2964232284	 0.0065103973	 0.321707
C	-4.2432019584	-2.6262487068	-0.1482435862	-0.421034
H	 1.0536872343	 1.6074158972	-0.119114343	 0.29514
H	 0.2071970958	-0.3080277107	-1.1380026433	 0.114872
H	 0.6157698072	-0.6074624964	 0.5551941352	 0.106642
H	-1.070183182	-2.3815319933	-0.5632783546	 0.142901
H	-1.3396726009	-2.2549588723	 1.1587060638	 0.16061
H	-5.2573393289	-2.9098735778	-0.2839428355	 0.200545
37.2696	92.0436	134.1902	222.9085	253.451	323.6179	360.2235	413.714	457.6562	627.2147	642.7278	687.1323	797.9579	874.4977	948.3977	1029.2244	1058.4807	1150.1271	1206.4584	1235.5366	1267.9324	1332.5776	1439.6681	1444.7004	1493.5401	1852.5507	2250.8225	2943.143	2964.4985	3007.7826	3041.3583	3507.4983	3836.1604
OCC(=O)CC#C	OCC(=O)CC#C	
InChI=1S/C5H6O2/c1-2-3-5(7)4-6/h1,6H,3-4H2	InChI=1S/C5H6O2/c1-2-3-5(7)4-6/h1,6H,3-4H2
