14
gdb 2636	18.33516	0.87367	0.86085	2.7455	57.84	-0.2634	-0.0367	0.2267	1243.9651	0.111147	-361.712098	-361.703946	-361.703002	-361.746479	25.827	
N	-0.1121877044	 1.3108446609	-0.2288405034	-0.432217
C	-0.0433650472	 0.0695311855	-0.019146319	 0.128767
O	-1.1548723484	-0.6899237815	-0.1110054167	-0.180673
C	-0.9758649697	-2.0970032896	 0.026511376	-0.081576
C	-2.3569725102	-2.7213384019	 0.2086739393	-0.278267
C	-2.3120023114	-4.2306296334	 0.1046979449	 0.151509
O	-2.7241034186	-4.9886276511	 0.9424221214	-0.226121
H	 0.8031802059	 1.7372542099	-0.1015221853	 0.232431
H	 0.8567253024	-0.499796888	 0.2528377968	 0.087036
H	-0.4857482139	-2.5001185179	-0.8714087381	 0.11499
H	-0.3352712441	-2.3184068515	 0.890373656	 0.122931
H	-2.7995997946	-2.4344407492	 1.1648841636	 0.139232
H	-3.0010577654	-2.3482181116	-0.5994473658	 0.14427
H	-1.8609750404	-4.6128911405	-0.8414736798	 0.077688
32.4073	62.7564	69.0718	133.0423	162.8789	319.7298	371.4867	529.5209	630.7838	784.6192	824.1999	874.2788	980.6702	1023.0724	1045.2651	1106.296	1134.7238	1143.051	1226.166	1276.6324	1295.5305	1318.809	1408.7403	1431.916	1433.7124	1467.9685	1518.2436	1751.7938	1841.5204	2854.2048	2995.3085	3020.188	3030.5253	3045.2439	3123.0679	3520.2878
N=COCCC=O	[NH][CH]OCCC=O	
InChI=1S/C4H7NO2/c5-4-7-3-1-2-6/h2,4-5H,1,3H2	InChI=1S/C4H7NO2/c5-4-7-3-1-2-6/h2,4-5H,1,3H2
