9
gdb 753	9.82355	3.90975	2.79668	1.4387	41.35	-0.2243	-0.0198	0.2045	426.0399	0.063337	-313.554802	-313.549799	-313.548855	-313.582997	17.538	
N	-0.0987946611	 1.3301958982	 0.0351599618	-0.586917
C	 0.0134357916	 0.0616048005	 0.0421571405	 0.487403
N	 1.0778154411	-0.8332290945	 0.0410313504	-0.298664
N	 0.6635418511	-2.1362479502	 0.0515448654	-0.076756
N	-0.6011469375	-2.1396117499	 0.0591630621	-0.064811
N	-1.0297671258	-0.851179449	 0.0538850108	-0.25617
H	 0.8067459976	 1.7907178079	 0.0269935795	 0.215523
H	 2.0605833532	-0.625775795	 0.0343809447	 0.285596
H	-2.0116848602	-0.6373858981	 0.0586752649	 0.294797
154.219	342.8763	431.239	441.9176	681.7574	713.1456	724.3828	748.0237	983.6166	1018.5057	1030.6161	1084.942	1110.2911	1346.3557	1364.4454	1388.8671	1521.1716	1779.4857	3534.8348	3699.7299	3701.3234
N=C1NN=NN1	[NH][C@@H]1NN=NN1	
InChI=1S/CH3N5/c2-1-3-5-6-4-1/h(H3,2,3,4,5,6)	InChI=1S/CH4N5/c2-1-3-5-6-4-1/h1-2H,(H,3,6)(H,4,5)
