15
gdb 4871	2.74169	1.4592	0.95713	2.6869	70.94	-0.2482	-0.0744	0.1739	1176.0325	0.115662	-399.838284	-399.828791	-399.827847	-399.873695	31.983	
N	-0.2367732245	-0.1026903462	-0.5873231401	-0.72061
H	 0.2367695548	-0.3975138952	 0.2639620508	 0.261109
H	 0.4679310997	-0.1101706523	-1.319962233	 0.236896
H	-0.8890468216	-0.8466977056	-0.8205898709	 0.236854
C	-0.5886485774	 2.2217460863	 1.8375017755	-0.42827
C	 0.1176360936	 1.5543047652	 2.750760811	 0.399062
C	 0.4425275594	 1.9046873514	 4.1245895043	-0.154126
C	 1.1793175599	 0.9149615741	 4.6521509003	-0.245595
C	 1.3579284348	-0.1245532707	 3.6200436254	 0.408388
O	 1.9350586691	-1.1724515446	 3.6376551023	-0.333229
O	 0.6865883076	 0.3243808029	 2.4821917284	-0.244376
H	-1.0146189264	 3.1827987329	 2.097048065	 0.12466
H	-0.7400958938	 1.8139577604	 0.842855014	 0.179628
H	 0.1185134881	 2.8231588358	 4.5938205191	 0.138246
H	 1.5998080267	 0.8246312356	 5.641717498	 0.141362
45.7336	66.6563	119.0052	119.6573	160.0945	185.0376	290.5694	294.2685	344.4132	521.3811	617.5468	648.0313	737.6018	738.5917	772.1611	848.9181	889.678	925.3857	955.8971	961.6486	997.8551	1084.6079	1114.1534	1120.8024	1307.0726	1349.9039	1445.2206	1614.9213	1676.3664	1693.0135	1716.1126	1876.3206	3147.107	3236.9685	3257.7974	3268.2491	3461.1274	3577.8189	3581.9492
[NH3+]CC1=CC=C([O-])O1	N.C=C1C=CC(=O)O1	
InChI=1S/C5H7NO2/c6-3-4-1-2-5(7)8-4/h1-2,7H,3,6H2	InChI=1S/C5H4O2.H3N/c1-4-2-3-5(6)7-4;/h2-3H,1H2;1H3
