14
gdb 3316	7.95729	1.94111	1.74187	2.1361	60.78	-0.2492	0.0232	0.2724	737.2831	0.11326	-324.538807	-324.532321	-324.531377	-324.569272	23.519	
C	 0.0242993086	 1.3840794272	 0.0705659782	-0.339807
N	 0.1681962766	-0.0611696266	-0.031767472	-0.341053
C	 0.585674534	-0.7042871416	 0.952786382	 0.490765
O	 0.9974458136	-0.2577194702	 2.2240355633	-0.286061
C	 1.4351985663	-1.600831328	 2.5453489611	 0.098648
C	 0.2659124123	-2.5150655222	 2.5730267428	-0.290149
C	 0.9085648283	-2.1337687428	 1.232967782	-0.225766
H	 0.5700636197	 1.8555050228	-0.7537026699	 0.127365
H	-1.0319398861	 1.6473536756	-0.054616132	 0.128904
H	 0.3807937363	 1.8037887698	 1.0182416596	 0.128159
H	 2.387280314	-1.7087114809	 3.0459274848	 0.12427
H	 0.465342303	-3.5373354475	 2.8800222099	 0.1276
H	-0.7115216202	-2.1284315065	 2.8433530078	 0.134049
H	 1.3022849236	-2.8581224991	 0.5358938624	 0.123077
100.275	138.1811	217.5132	299.1932	460.0256	484.9863	672.7657	721.4663	783.1958	826.5695	887.759	933.68	968.0511	1013.8599	1035.7525	1039.5217	1061.9525	1082.6105	1105.7465	1134.5381	1167.0267	1199.7914	1293.5004	1331.939	1440.4956	1474.9018	1493.1017	1498.5956	1857.6163	3018.789	3083.9751	3090.3094	3125.7783	3215.5146	3220.0314	3236.4476
CN=C1OC2CC12	CN=C1O[C@H]2C[C@@H]12	
InChI=1S/C5H7NO/c1-6-5-3-2-4(3)7-5/h3-4H,2H2,1H3	InChI=1S/C5H7NO/c1-6-5-3-2-4(3)7-5/h3-4H,2H2,1H3/t3-,4+/m1/s1
