13
gdb 705	10.64531	2.29727	2.08154	2.6444	50.31	-0.2493	0.0746	0.3238	605.2204	0.108598	-286.432042	-286.426314	-286.42537	-286.461426	20.405	
C	-0.2812710136	 1.2817581762	-0.2456910314	-0.242069
N	 1.0972950319	 1.2906699673	 0.2641612307	-0.314006
C	 0.3811644351	 0.0100931165	 0.146152826	-0.02247
C	 0.054426415	-0.6790531417	 1.4266360111	 0.1088
C	-0.5582666311	-2.0128010245	 1.4493519402	-0.184214
O	 0.8286112426	-1.840671576	 1.7424139986	-0.23644
H	-1.0129836541	 1.739197265	 0.4151338279	 0.120435
H	-0.4603263771	 1.454701634	-1.3035941751	 0.115254
H	 1.7588839956	 1.3953870269	-0.4999052092	 0.236568
H	 0.6716624435	-0.6667871628	-0.6552688125	 0.09138
H	-0.1178470115	-0.0080373884	 2.2687299955	 0.100778
H	-1.1859110988	-2.3061067534	 2.289795515	 0.115627
H	-0.7782267075	-2.5199777291	 0.5100835432	 0.110357
92.2671	217.3023	267.0494	397.4613	505.8434	782.0332	850.6374	867.1249	893.3339	905.4282	958.8351	979.2452	1038.6095	1096.6477	1118.734	1141.9516	1154.2453	1168.9669	1238.857	1248.5707	1279.1818	1292.9941	1351.9023	1476.4476	1515.5812	1535.2429	3078.6682	3106.8933	3111.7837	3129.3582	3164.2332	3190.8935	3512.6117
C1NC1C1CO1	C1N[C@H]1[C@H]1CO1	
InChI=1S/C4H7NO/c1-3(5-1)4-2-6-4/h3-5H,1-2H2	InChI=1S/C4H7NO/c1-3(5-1)4-2-6-4/h3-5H,1-2H2/t3-,4-/m1/s1
