12
gdb 344	9.49914	2.31209	1.88308	2.7489	50.95	-0.2476	-0.0605	0.187	629.4902	0.095327	-302.564379	-302.557593	-302.556649	-302.594563	23.292	
C	 0.2049834447	 1.5933917773	 0.0736825007	-0.341356
N	 0.2792367042	 0.1591007724	 0.2754846857	-0.260399
C	 0.4879324719	-0.5692413332	-0.7575109792	 0.275471
N	 0.6880784961	-0.1998723041	-2.0579714202	-0.553257
C	 0.5519023816	-2.0474423469	-0.5232905881	 0.142959
O	 0.6875660354	-2.8510454902	-1.4150336269	-0.271037
H	 1.1221427422	 1.9926690216	-0.3869702959	 0.121548
H	-0.6372122869	 1.8764184457	-0.5791016827	 0.113616
H	 0.0605818408	 2.0939321292	 1.0336065398	 0.131273
H	 0.3984538173	 0.7086607966	-2.3758131095	 0.261195
H	 0.6748419098	-0.9536743768	-2.7292669771	 0.27063
H	 0.451821113	-2.3237618417	 0.5424948732	 0.109357
128.1585	145.4272	229.2682	293.3866	308.6798	361.8268	483.6671	542.7607	636.3093	681.5233	912.0111	1008.8839	1029.7459	1099.2648	1108.9928	1200.4425	1366.8071	1376.735	1429.6714	1489.931	1502.4186	1608.463	1727.2967	1805.6604	2965.0071	2978.8721	3012.3793	3109.2165	3583.8754	3716.8349
CN=C(N)C=O	CN=C(N)C=O	
InChI=1S/C3H6N2O/c1-5-3(4)2-6/h2H,1H3,(H2,4,5)	InChI=1S/C3H6N2O/c1-5-3(4)2-6/h2H,1H3,(H2,4,5)
