15
gdb 3569	5.12238	2.97645	2.74518	1.702	59.2	-0.252	0.0733	0.3253	575.082	0.126418	-308.45231	-308.446957	-308.446012	-308.481126	21.665	
C	-0.0345380511	 1.5325002505	 0.0693586806	-0.223209
C	 1.5277909874	 1.5536674096	 0.0545089975	-0.223213
C	 1.5493172799	-0.0009675032	-0.0344808844	-0.054687
C	 1.5275641532	-0.7780582509	 1.3055533089	 0.018595
O	 0.7888711592	-0.0043884297	 2.2586653077	-0.234905
C	 0.052859456	-0.7978688846	 1.3198580502	 0.018574
C	-0.0156495546	-0.0221788642	-0.0194260992	-0.054691
H	-0.4964561301	 1.9361561967	 0.9719133739	 0.110439
H	-0.4875797713	 2.0058750268	-0.8047991904	 0.095811
H	 1.951123614	 2.0390051495	-0.8279405722	 0.095805
H	 1.9956995275	 1.9698345034	 0.9482563792	 0.110454
H	 2.1166736724	-0.4774179119	-0.8340638564	 0.070913
H	 2.2597203727	-1.4706747736	 1.7068473768	 0.099594
H	-0.6524939666	-1.5098149832	 1.7350915488	 0.099599
H	-0.5851496286	-0.5141023451	-0.8080409412	 0.07092
182.4546	291.4292	403.7897	588.4809	694.1741	728.4919	738.3283	814.9178	830.6109	874.6041	877.0566	882.1198	957.0487	957.4227	980.0471	1026.224	1031.7891	1072.1853	1107.2263	1136.5563	1197.1608	1227.5111	1230.6355	1248.4312	1250.4029	1280.857	1291.0705	1309.4349	1380.2446	1461.3421	1481.7038	3065.0644	3071.5618	3105.9523	3116.1887	3118.3461	3135.0347	3164.9895	3180.3549
C1CC2C3OC3C12	C1C[C@H]2[C@H]3O[C@H]3[C@@H]12	
InChI=1S/C6H8O/c1-2-4-3(1)5-6(4)7-5/h3-6H,1-2H2	InChI=1S/C6H8O/c1-2-4-3(1)5-6(4)7-5/h3-6H,1-2H2/t3-,4+,5-,6+
