10
gdb 3778	8.46181	2.12971	1.71958	1.6238	47.01	-0.2754	-0.0691	0.2063	666.1611	0.065178	-392.552088	-392.545902	-392.544958	-392.582691	20.498	
C	 0.0336981118	 1.463486974	 0.0860144096	-0.336145
N	-0.0550619919	 0.0387380627	 0.3643869454	-0.338253
C	-1.0991664791	-0.5870266747	 0.1256482875	 0.580456
O	-2.3035056007	-0.1557654169	-0.4008049702	-0.233851
N	-3.1416054601	-1.2683667441	-0.4595340068	 0.061948
N	-2.5507702589	-2.2630297427	-0.0307438467	 0.072034
O	-1.2636349468	-1.9344700374	 0.3599858911	-0.225112
H	 0.8602027555	 1.6367346968	-0.6103063038	 0.143716
H	-0.8796094126	 1.8980118309	-0.3365081153	 0.13149
H	 0.2770397329	 1.9904285515	 1.0139690393	 0.143716
69.883	159.3003	208.8435	257.2566	499.5412	635.5914	701.9076	703.7876	756.7261	906.3983	979.4309	1047.5375	1099.4588	1138.3335	1139.269	1203.9396	1450.0358	1491.3292	1503.8012	1570.215	1871.0372	3023.0496	3094.9402	3098.1176
CN=C1ON=NO1	CN=c1onno1	
InChI=1S/C2H3N3O2/c1-3-2-6-4-5-7-2/h1H3	InChI=1S/C2H3N3O2/c1-3-2-6-4-5-7-2/h1H3
