13
gdb 2006	6.33166	2.08679	2.0783	4.3149	59.37	-0.2625	0.0066	0.2691	656.4934	0.103987	-303.437471	-303.431903	-303.430958	-303.466758	21.287	
N	 0.0044735458	-1.0841405064	-0.0435636042	-0.343705
C	-0.0117956686	 0.071220544	-0.0111738294	 0.165598
C	-0.0068219463	 1.5142220125	 0.0389167582	 0.239281
C	-0.6653959766	 2.4443165483	 1.0978306528	-0.220843
C	-0.0599143129	 3.3370031035	-0.0151982388	-0.035826
C	 1.2264533871	 2.4678303593	 0.0297736392	-0.256724
N	-0.6939788462	 2.3749698221	-1.0153132967	-0.335552
H	-1.7531382405	 2.4020539907	 1.1319614475	 0.129322
H	-0.1957235261	 2.4754334809	 2.0808976956	 0.114315
H	-0.1463662509	 4.4156301494	-0.1323178782	 0.1028
H	 1.8480208838	 2.500777546	 0.9289668712	 0.113264
H	 1.8275714655	 2.4455554073	-0.8828102444	 0.111652
H	-0.1274278041	 2.3577275125	-1.8702516327	 0.216418
176.2136	181.8566	502.0266	517.8465	539.2928	564.0131	610.8522	778.7102	799.3126	907.14	925.0893	952.157	967.714	990.3913	1053.5091	1093.4226	1126.2419	1152.7853	1181.2245	1222.3034	1225.2831	1266.623	1289.114	1297.2688	1479.8761	1522.2173	2355.9994	3051.0085	3093.6019	3124.2101	3139.4789	3176.715	3381.5792
N#CC12CC(C1)N2	N#C[C@@]12C[C@@H](C1)N2	
InChI=1S/C5H6N2/c6-3-5-1-4(2-5)7-5/h4,7H,1-2H2	InChI=1S/C5H6N2/c6-3-5-1-4(2-5)7-5/h4,7H,1-2H2/t4-,5+
