18
gdb 3016	5.31568	1.55287	1.31514	1.6872	64.08	-0.2454	0.0716	0.317	950.053	0.159414	-326.948771	-326.940517	-326.939573	-326.981511	29.594	
C	-0.1521464588	 1.534347872	-0.1924941326	-0.383461
C	-0.1141498624	 0.0066965756	-0.2679181934	-0.182677
C	 1.1559057562	-0.5316329078	-0.9398745295	 0.107207
O	 2.3386627481	-0.0896514274	-0.2711470468	-0.430629
C	 1.1283810667	-2.0403901715	-1.0701092087	 0.00323
C	 0.7910498419	-2.6781153556	-2.3681784312	-0.241936
N	 2.1665076362	-2.7262195896	-1.8491637725	-0.318858
H	 0.7350365267	 1.9143668209	 0.3202899778	 0.13047
H	-0.1720248589	 1.9772310647	-1.19449311	 0.113632
H	-1.0395494432	 1.8828933867	 0.3439660244	 0.109821
H	-0.1788393926	-0.4199672401	 0.7435273381	 0.08794
H	-0.9860788351	-0.3726270663	-0.8154039999	 0.101168
H	 1.2415895582	-0.0956955311	-1.944890526	 0.07676
H	 2.3781095022	-0.5368960637	 0.5819635839	 0.279987
H	 0.857745307	-2.567287351	-0.1537856175	 0.082781
H	 0.2746558189	-3.6336078577	-2.3909992089	 0.118525
H	 0.5683433855	-2.0257085239	-3.209449989	 0.110286
H	 2.7474740634	-2.0322686243	-2.3152028382	 0.235754
60.1668	103.4812	171.0755	215.481	251.4933	288.7473	316.2199	403.8222	507.9281	514.7182	774.4818	815.427	870.234	885.7246	944.0145	961.6095	983.8512	1043.0096	1066.3899	1100.5148	1114.2771	1135.5079	1158.8762	1199.4836	1245.0119	1263.8419	1283.6955	1310.9019	1331.31	1382.353	1404.9991	1415.9162	1436.3391	1479.6719	1495.9463	1508.8979	1513.5497	3003.999	3019.0367	3037.7549	3053.5709	3094.0516	3102.5032	3105.0931	3124.618	3188.9834	3490.1143	3795.8093
CCC(O)C1CN1	CC[C@@H](O)[C@H]1CN1	
InChI=1S/C5H11NO/c1-2-5(7)4-3-6-4/h4-7H,2-3H2,1H3	InChI=1S/C5H11NO/c1-2-5(7)4-3-6-4/h4-7H,2-3H2,1H3/t4-,5-/m1/s1
