16
gdb 2780	4.75231	1.91386	1.45643	2.498	61.68	-0.242	-0.0236	0.2184	846.4641	0.136226	-325.773675	-325.766275	-325.765331	-325.805427	26.494	
C	 0.0141778347	 1.5963645291	 0.0680703	-0.387356
C	 0.2566847845	 0.0969486758	-0.1221673184	-0.162895
C	 0.6654975354	-0.5977759307	 1.1723601709	-0.078705
N	-0.3987634826	-0.7039392886	 2.2168568455	-0.325723
C	-0.1888238363	-2.1653523978	 2.4009191558	-0.283495
C	 0.7358216096	-2.1358393464	 1.1731417849	 0.382638
O	 1.25901798	-2.95616385	 0.4810996601	-0.287437
H	 0.9222793586	 2.1067971543	 0.4087967989	 0.110539
H	-0.3021907349	 2.0670263931	-0.8674967573	 0.117288
H	-0.7698126201	 1.7666792442	 0.8125996731	 0.128174
H	-0.6534190724	-0.381553395	-0.5013572896	 0.104463
H	 1.0441468451	-0.0764425474	-0.8653849119	 0.110559
H	 1.6110825208	-0.1721865736	 1.5460754886	 0.090112
H	-0.2116068571	-0.1594791067	 3.049944963	 0.224863
H	 0.3467168362	-2.4634417326	 3.3131926747	 0.122751
H	-1.0958341015	-2.7736722577	 2.3145244915	 0.134225
91.6388	111.2815	147.7616	238.1448	296.9153	384.0399	482.2281	553.7983	647.459	745.1409	766.7764	819.4033	918.6501	966.6407	979.445	1011.4085	1053.6328	1082.8218	1093.5948	1129.0063	1167.4677	1221.0462	1273.7052	1288.1354	1339.5198	1367.3525	1382.3168	1407.5562	1474.2648	1476.8709	1497.9777	1509.0807	1912.4561	2974.7454	3010.935	3031.3727	3035.3868	3068.7344	3073.2382	3101.8032	3111.2205	3551.4983
CCC1NCC1=O	CC[C@H]1NCC1=O	
InChI=1S/C5H9NO/c1-2-4-5(7)3-6-4/h4,6H,2-3H2,1H3	InChI=1S/C5H9NO/c1-2-4-5(7)3-6-4/h4,6H,2-3H2,1H3/t4-/m1/s1
