16
gdb 3370	4.14135	2.75608	2.68383	0.6726	60.18	-0.2211	0.0921	0.3133	624.0958	0.13835	-325.743746	-325.737463	-325.736519	-325.773566	23.779	
C	-0.2747351458	 1.4992472733	-0.0489050101	-0.33013
N	 0.0366107992	 0.0775991851	 0.0647115707	-0.091214
C	 1.3382953512	-0.4681653737	-0.2865147552	-0.047947
C	 2.5445784015	 0.4516675988	-0.3299778027	-0.104736
O	 2.5308408606	 1.1955890254	 0.8858483556	-0.252184
C	 1.8108350053	 0.4673873016	 1.8773903163	-0.104736
C	 0.8666888405	-0.4580617393	 1.132251808	-0.047947
H	 0.5440486482	 2.1780777287	 0.2184157221	 0.132297
H	-0.5770548354	 1.7028733248	-1.0810872112	 0.12115
H	-1.1339107986	 1.714808101	 0.5942215235	 0.12115
H	 1.3418502735	-1.3556099535	-0.9140906787	 0.093301
H	 3.4607873873	-0.1539558291	-0.4229976778	 0.097645
H	 2.5312062371	 1.1746279362	-1.1537143125	 0.111203
H	 2.4864602798	-0.1330809993	 2.5081354329	 0.097645
H	 1.3100862955	 1.2007893149	 2.5198578517	 0.111203
H	 0.4900623802	-1.3373622651	 1.6483961673	 0.093301
180.7547	220.7318	223.8568	259.1006	434.506	484.6726	709.8085	723.1795	774.2539	826.6207	891.1813	924.2881	981.5504	1013.026	1030.8617	1038.3717	1114.084	1127.7389	1133.884	1168.3703	1184.8289	1225.3383	1243.3794	1308.4271	1313.5699	1351.0655	1368.469	1416.5275	1463.3302	1492.3273	1505.7308	1520.196	1520.9856	2971.301	2978.0964	3019.5408	3054.5604	3057.7889	3086.4842	3100.0356	3137.9457	3147.7748
CN1C2COCC12	CN1[C@H]2COC[C@@H]12	
InChI=1S/C5H9NO/c1-6-4-2-7-3-5(4)6/h4-5H,2-3H2,1H3	InChI=1S/C5H9NO/c1-6-4-2-7-3-5(4)6/h4-5H,2-3H2,1H3/t4-,5+,6?
