13
gdb 3728	7.10211	1.88973	1.64198	3.7874	54.89	-0.2997	-0.0414	0.2583	749.9674	0.10222	-340.604189	-340.597835	-340.596891	-340.635149	22.183	
C	 0.0755605969	 1.4497920592	-0.3652005675	-0.379475
C	-0.0616411271	 0.0758433449	 0.311923854	-0.295711
C	-1.4218951332	-0.5235131055	 0.1383157918	 0.33705
N	-2.2599870159	-0.6702604043	 1.1313733495	-0.143849
O	-3.3896618712	-1.2286071377	 0.5994366558	-0.148262
N	-3.2563847028	-1.434887936	-0.7432349241	-0.059599
C	-2.0617590115	-1.0090806655	-1.0417920863	-0.103617
H	 1.0844943547	 1.8458857533	-0.2207678416	 0.126811
H	-0.1092767162	 1.3859918027	-1.442181903	 0.123243
H	-0.6367544504	 2.1646733202	 0.0562174287	 0.137591
H	 0.6858297913	-0.6130430013	-0.0989297439	 0.122811
H	 0.1371289205	 0.1615651043	 1.3835868979	 0.13716
H	-1.6934896152	-1.0587382742	-2.0549967612	 0.145845
49.3407	163.2078	208.5135	339.461	408.8648	640.822	652.093	729.5918	793.4012	896.031	896.2297	932.1991	972.5363	1027.7358	1039.8207	1080.055	1109.4384	1203.1891	1281.8986	1352.7976	1409.8598	1428.8907	1465.4001	1482.4934	1498.0565	1507.3384	1614.3064	3041.5942	3043.6193	3094.4959	3117.0539	3123.2401	3265.7788
CCC1=NON=C1	CCc1nonc1	
InChI=1S/C4H6N2O/c1-2-4-3-5-7-6-4/h3H,2H2,1H3	InChI=1S/C4H6N2O/c1-2-4-3-5-7-6-4/h3H,2H2,1H3
