14
gdb 2491	5.01147	3.04663	2.61469	2.1865	56.02	-0.2282	0.0654	0.2936	567.2721	0.114057	-324.500425	-324.494665	-324.493721	-324.529748	22.469	
O	-0.0789796097	 1.4437659366	-0.0024590525	-0.476145
C	-0.0291162434	 0.0612851427	 0.0089581574	 0.358742
C	 0.5112546909	-0.7642495675	-1.1957399656	-0.311953
C	-0.4582485546	-1.8436848917	-0.7224425555	-0.02385
C	-1.30208724	-0.8738016502	 0.0117752187	-0.093811
N	-0.5049864245	-1.8623248578	 0.787843186	-0.146791
C	 0.4359086598	-0.7741070445	 1.2184715607	-0.201199
H	 0.7920801782	 1.7842983896	-0.2347126513	 0.285822
H	 0.1799553243	-0.3347381036	-2.1447433321	 0.111503
H	 1.5846130932	-0.9841059305	-1.2281412387	 0.091227
H	-0.7391947531	-2.7646820582	-1.2156155849	 0.101199
H	-2.367137321	-0.7162558184	 0.1119291094	 0.101907
H	 1.4917525448	-1.0626974058	 1.2920420691	 0.090083
H	 0.0838499852	-0.3698820808	 2.1707180593	 0.113267
113.4835	316.9324	352.6191	455.564	461.159	628.883	714.962	749.6851	796.0463	845.0359	896.7324	927.8167	958.5064	973.0461	989.9614	1017.6248	1076.2116	1100.9578	1142.5389	1155.7552	1171.9197	1203.171	1240.7001	1264.695	1285.3784	1342.0463	1384.5226	1488.5779	1512.8709	3026.2296	3036.4753	3106.0052	3109.1787	3200.6584	3216.8475	3802.3303
OC12CC3C1N3C2	O[C@]12C[C@@H]3[C@H]1N3C2	
InChI=1S/C5H7NO/c7-5-1-3-4(5)6(3)2-5/h3-4,7H,1-2H2	InChI=1S/C5H7NO/c7-5-1-3-4(5)6(3)2-5/h3-4,7H,1-2H2/t3-,4-,5+,6?/m1/s1
