14
gdb 264	8.47929	1.99776	1.7207	3.5648	50.96	-0.2427	0.0598	0.3025	719.1944	0.120088	-303.795699	-303.788437	-303.787493	-303.827496	25.169	
C	-0.1956603292	 1.4760988304	 0.1210895147	-0.374469
C	 0.2738257503	 0.0443654191	-0.1313242831	-0.128493
N	 0.9522299867	-0.5194668285	 1.0255201308	-0.334998
C	 0.7133660963	-1.8128849094	 1.4324178836	 0.447829
N	 1.5771309084	-2.2508023005	 2.4356315907	-0.563625
O	-0.1521774506	-2.525719815	 0.9593819557	-0.388502
H	 0.6463874015	 2.1400033617	 0.3484661813	 0.107773
H	-0.7000015907	 1.8741379909	-0.7649581436	 0.119084
H	-0.8922649404	 1.5140994549	 0.9635860855	 0.125895
H	-0.569967326	-0.6177577958	-0.3344617437	 0.151366
H	 0.9266307661	 0.0134367919	-1.0156798763	 0.100615
H	 1.8363974989	-0.1094782264	 1.282962952	 0.234978
H	 1.9008800851	-1.5607958796	 3.097819628	 0.243731
H	 1.2444898437	-3.0981945236	 2.8711835844	 0.258816
29.2173	113.5596	210.4287	292.4621	368.5022	381.9241	444.1487	513.097	573.8466	653.9995	777.7196	794.0737	895.8188	983.375	1091.7293	1101.5367	1152.8748	1185.1253	1295.2814	1326.8439	1396.2205	1412.795	1491.703	1495.2068	1511.8988	1547.0641	1628.5639	1804.593	3000.252	3032.3172	3093.4037	3116.5989	3126.6386	3567.9022	3621.4288	3680.5959
CCNC(N)=O	CCNC(=O)N	
InChI=1S/C3H8N2O/c1-2-5-3(4)6/h2H2,1H3,(H3,4,5,6)	InChI=1S/C3H8N2O/c1-2-5-3(4)6/h2H2,1H3,(H3,4,5,6)
