12
gdb 242	8.55761	2.46723	1.93829	5.1423	49.82	-0.2397	-0.0114	0.2283	621.2041	0.095742	-302.579654	-302.57277	-302.571825	-302.610884	22.603	
C	-0.1313610628	 1.5448437634	 0.0123633891	-0.498912
C	 0.1871513507	 0.0545336684	 0.0008407818	 0.414302
O	 1.3074720106	-0.3860878842	-0.0127861493	-0.295923
N	-0.9666575216	-0.7368183474	 0.0077878383	-0.316677
C	-1.084925202	-2.1252662712	 0.0010753154	 0.086958
N	-0.1095038556	-2.9328352446	-0.0122823771	-0.395615
H	 0.8067772216	 2.0979689343	 0.0071126944	 0.157375
H	-0.7221135861	 1.827286561	-0.865822658	 0.139138
H	-0.7063150437	 1.817126382	 0.9041300941	 0.139077
H	-1.8419472836	-0.2379085892	 0.0190806361	 0.250915
H	-2.1454378382	-2.4111770358	 0.0092199164	 0.091156
H	-0.4608145993	-3.8893672568	-0.0144054111	 0.228205
58.7498	87.1279	174.0238	206.2903	373.3219	500.9567	544.9528	611.161	722.1695	823.1494	890.6928	989.2897	1046.3265	1065.3531	1100.2401	1222.2085	1263.0314	1383.4842	1433.4089	1469.5012	1483.1204	1535.6424	1739.2798	1841.5209	3021.0674	3039.4367	3101.5917	3167.2415	3495.0454	3636.3061
CC(=O)NC=N	CC(=O)NC=N	
InChI=1S/C3H6N2O/c1-3(6)5-2-4/h2H,1H3,(H2,4,5,6)	InChI=1S/C3H6N2O/c1-3(6)5-2-4/h2H,1H3,(H2,4,5,6)
