12
gdb 4683	6.2311	1.40939	1.1577	5.4941	66.25	-0.2607	-0.0606	0.2001	959.1552	0.084648	-377.569792	-377.562952	-377.562008	-377.601074	24.061	
C	 0.1326212311	 1.4520750679	 0.0797504072	-0.499377
C	-0.0541044414	-0.0151004254	-0.0222338685	 0.330787
C	-1.1135992877	-0.8358864303	-0.2680857532	-0.183034
N	-0.7010225607	-2.1521447618	-0.2452268977	-0.286131
C	 0.5702212761	-2.0795888612	 0.0091401399	 0.280697
O	 1.0394498764	-0.8114316331	 0.1583082521	-0.188782
C	 1.4962257043	-3.1447887786	 0.1447009873	 0.265261
N	 2.2563906259	-4.0097642021	 0.2564138387	-0.323393
H	 0.8507367091	 1.8131305656	-0.6640002084	 0.157018
H	-0.8211546988	 1.956634535	-0.0866321758	 0.151086
H	 0.5079031284	 1.7364444115	 1.0684496983	 0.157011
H	-2.1402895628	-0.5670168776	-0.45890548	 0.138857
127.6305	148.8192	157.1217	269.4925	331.462	499.6774	558.7769	582.6246	654.6402	696.3247	736.5121	861.2893	973.4995	1001.3665	1035.8727	1066.0015	1148.9389	1231.9837	1265.0262	1356.5483	1418.5925	1471.2186	1485.9296	1552.1038	1622.2787	2358.1294	3040.7842	3097.2307	3138.0229	3268.4573
CC1=CN=C(O1)C#N	Cc1cnc(o1)C#N	
InChI=1S/C5H4N2O/c1-4-3-7-5(2-6)8-4/h3H,1H3	InChI=1S/C5H4N2O/c1-4-3-7-5(2-6)8-4/h3H,1H3
