16
gdb 2769	4.46999	2.00044	1.50109	2.8429	62.44	-0.2271	-0.0282	0.199	822.145	0.135753	-325.758113	-325.750714	-325.74977	-325.78988	26.07	
C	-0.3192130928	 1.5034724213	-0.1784228369	-0.326731
N	-0.1851017144	 0.0800237419	 0.0414314287	-0.073788
C	-1.274838333	-0.648562067	 0.7169903678	-0.156273
C	-0.2087464683	-1.5248846565	 1.4148219782	-0.255473
C	 0.800414836	-0.3998235245	 1.0244130846	-0.033598
C	 2.1153301407	-0.8609769848	 0.4382925986	 0.154145
O	 3.1749247529	-0.8150089375	 1.0079606154	-0.246605
H	 0.6070846255	 1.9038355075	-0.6035015266	 0.126899
H	-1.1251827544	 1.6909964186	-0.8955969918	 0.125269
H	-0.5445786087	 2.0662841239	 0.7466446768	 0.095972
H	-1.8313737056	-0.025386428	 1.4362711646	 0.089473
H	-1.9898759761	-1.1369901146	 0.0466965865	 0.106248
H	-0.3242339126	-1.7210552365	 2.4797270543	 0.121307
H	-0.0161071548	-2.4611417213	 0.8864503785	 0.119356
H	 0.9923403309	 0.2903556554	 1.8604431085	 0.076399
H	 2.0099064947	-1.2853009978	-0.5871519171	 0.077399
71.9879	131.4682	203.6565	239.3902	252.7388	343.3901	412.7544	487.8557	652.36	781.2792	870.023	909.3569	957.1946	983.3939	1021.9702	1072.3611	1118.9927	1149.9011	1173.0108	1197.3075	1222.9024	1246.9898	1250.8794	1280.2657	1313.0743	1338.9953	1404.6227	1452.9383	1484.2668	1486.3902	1499.5726	1523.5737	1831.5796	2871.4708	2934.5272	2967.9902	2990.1609	3059.2461	3060.6727	3084.3917	3101.7869	3151.9517
CN1CCC1C=O	CN1CC[C@H]1C=O	
InChI=1S/C5H9NO/c1-6-3-2-5(6)4-7/h4-5H,2-3H2,1H3	InChI=1S/C5H9NO/c1-6-3-2-5(6)4-7/h4-5H,2-3H2,1H3/t5-/m0/s1
