13
gdb 561	9.72204	2.56437	2.11019	4.2072	52.08	-0.2396	0.0265	0.2661	586.133	0.108991	-286.498779	-286.492684	-286.49174	-286.529456	20.138	
O	 0.0143110536	-0.0146223524	 0.3903395489	-0.332646
C	 0.0406820369	 1.1923494227	 0.2532350317	 0.129141
N	 1.1452603515	 1.9028077722	-0.0528657357	-0.028285
C	 2.5197041632	 1.4613333861	-0.2888162627	-0.15803
C	 2.9039452791	 2.9513000738	-0.5306794867	-0.235944
C	 1.4153857628	 3.3276149835	-0.2637351141	-0.169229
H	-0.851753778	 1.8433236487	 0.3668907449	 0.064327
H	 2.9812730662	 0.9830562078	 0.5808985255	 0.125558
H	 2.6234518996	 0.7942198518	-1.1504309865	 0.125564
H	 3.6103554121	 3.3626527481	 0.1903285735	 0.121107
H	 3.2524655094	 3.1741275993	-1.5391277954	 0.121111
H	 0.8827111358	 3.7640021666	-1.1159728268	 0.118665
H	 1.2416548377	 3.9527222818	 0.6191884433	 0.11866
34.4658	131.6089	204.0414	315.2023	536.2792	761.8637	790.7974	844.4926	904.8048	935.7384	986.7579	1034.5097	1139.7004	1144.3641	1187.1355	1201.3711	1228.9349	1269.1848	1292.1539	1332.617	1399.8532	1449.6453	1492.797	1511.2967	1533.2858	1790.9795	2912.3163	3027.5663	3045.33	3068.8445	3085.8909	3096.4963	3151.1176
O=CN1CCC1	O=CN1CCC1	
InChI=1S/C4H7NO/c6-4-5-2-1-3-5/h4H,1-3H2	InChI=1S/C4H7NO/c6-4-5-2-1-3-5/h4H,1-3H2
