14
gdb 594	12.94847	1.75438	1.68147	2.483	50.75	-0.2579	0.0832	0.3412	738.5038	0.118336	-307.526911	-307.520151	-307.519207	-307.557716	22.684	
C	-0.1430183486	 1.3496032064	 0.0815257048	-0.22478
O	-0.0768788828	-0.0560402421	 0.0680943987	-0.231368
C	 0.7991507812	-0.5718477359	 1.0433886367	-0.071931
C	 0.7965361142	-2.0721393237	 0.9446196497	 0.084664
C	 1.1573333723	-2.9110414838	 2.0925112364	-0.181578
O	-0.2031975307	-2.7709483305	 1.6873959536	-0.225737
H	 0.8409033027	 1.8075279934	-0.1104783668	 0.102035
H	-0.8334518882	 1.6516075262	-0.7094130991	 0.130285
H	-0.5161661366	 1.7323482726	 1.0446209869	 0.106483
H	 1.8242467286	-0.1913534785	 0.8820000417	 0.08684
H	 0.4874549468	-0.2732008772	 2.0578880649	 0.094095
H	 0.962328809	-2.4607733954	-0.0604707336	 0.101667
H	 1.6039057108	-3.8899724797	 1.9248735129	 0.116795
H	 1.4124690812	-2.4441574219	 3.0436268832	 0.112531
84.4377	105.7928	185.7305	230.8747	354.0912	413.6855	487.4478	806.5582	869.8944	942.326	991.8626	1009.5949	1095.5324	1140.3168	1159.3409	1168.6522	1173.8225	1190.0383	1229.5471	1269.7361	1293.4211	1378.7363	1458.8333	1479.4082	1485.0536	1495.8017	1518.5444	1534.6138	2941.2779	2968.4753	2987.6217	3012.1091	3081.3148	3115.3296	3117.2121	3166.4677
COCC1CO1	COC[C@H]1CO1	
InChI=1S/C4H8O2/c1-5-2-4-3-6-4/h4H,2-3H2,1H3	InChI=1S/C4H8O2/c1-5-2-4-3-6-4/h4H,2-3H2,1H3/t4-/m0/s1
