10
gdb 927	5.85939	2.95546	1.96455	3.0076	51.72	-0.2579	-0.0857	0.1722	582.7982	0.068294	-359.351415	-359.346295	-359.345351	-359.380383	18.71	
O	-0.0329514068	-0.0438689401	 0.0040733509	-0.319348
C	 0.0090766108	 1.153270173	 0.0086287631	 0.395072
O	-1.1870288423	 1.8766122729	 0.0285538195	-0.198036
C	-1.1663822609	 3.2216363878	 0.0352395221	 0.07073
C	-0.0156290796	 3.9211239926	 0.0234868979	-0.083838
N	 1.2096188772	 3.2874394095	 0.0040698931	-0.198288
C	 1.2120271918	 1.9970942765	-0.0025201204	-0.10086
H	-2.1602535727	 3.6529743945	 0.0506767451	 0.154077
H	-0.0179512846	 5.0031919521	 0.0290657583	 0.132347
H	 2.1581074872	 1.4618748812	-0.0175162396	 0.148142
141.0587	382.2534	443.2773	518.3746	551.5834	631.9706	759.0724	784.367	834.9738	933.7743	945.949	948.398	1020.8777	1152.4212	1166.4938	1277.9333	1361.7701	1435.5395	1567.1781	1662.3214	1850.9235	3171.219	3207.1609	3228.5953
O=C1OC=CN=C1	O=c1occnc1	
InChI=1S/C4H3NO2/c6-4-3-5-1-2-7-4/h1-3H	InChI=1S/C4H3NO2/c6-4-3-5-1-2-7-4/h1-3H
