14
gdb 1905	5.71776	2.33501	1.97675	3.0639	59.57	-0.2574	0.0223	0.2797	677.5116	0.113328	-324.555249	-324.548951	-324.548007	-324.585094	23.995	
C	 0.0643313407	 1.4747705622	-0.0322161343	-0.487262
C	 0.0332520021	-0.0107250981	 0.0771749781	 0.456251
C	-0.897869518	-0.889280975	 0.8322526517	-0.326191
C	 0.6176131973	-1.0122373635	 1.0552601824	-0.24981
C	 1.20469674	-1.6440898944	-0.1598042244	 0.449284
N	 2.0216198024	-2.5687309157	-0.37865037	-0.557812
O	 0.5673743957	-0.7768360725	-1.0491403313	-0.303908
H	 1.0730979957	 1.828083329	-0.2647464592	 0.139446
H	-0.6111664553	 1.8169956522	-0.823724848	 0.14014
H	-0.2589884187	 1.9294715773	 0.9083520206	 0.131969
H	-1.4245485509	-0.4242978545	 1.6604984679	 0.125389
H	-1.4400508197	-1.6787623094	 0.32149156	 0.131713
H	 1.0882076597	-0.893981684	 2.0199997115	 0.12203
H	 2.200867089	-2.6705094838	-1.3790762951	 0.228761
146.5253	207.22	285.3897	342.1888	443.7355	459.7207	622.8675	653.6692	729.2303	822.2634	863.583	894.1395	911.3922	965.179	973.101	988.7123	1003.0581	1076.0269	1091.2615	1122.2471	1175.5081	1226.3763	1306.0599	1389.3797	1432.4629	1474.8868	1490.1788	1503.3233	1832.1931	3038.7862	3105.074	3121.5963	3123.6671	3214.4839	3232.036	3477.7925
CC12CC1C(=N)O2	C[C@]12C[C@H]1[C]([NH])O2	
InChI=1S/C5H7NO/c1-5-2-3(5)4(6)7-5/h3,6H,2H2,1H3	InChI=1S/C5H7NO/c1-5-2-3(5)4(6)7-5/h3,6H,2H2,1H3/t3-,5-/m0/s1
