15
gdb 4641	6.66533	1.25596	1.06383	3.0428	78.82	-0.1982	0.0185	0.2167	1076.1494	0.118936	-325.542935	-325.535178	-325.534233	-325.574813	29.057	
C	-0.0371239406	 1.5139714212	 0.0721258852	-0.506253
C	-0.0010838025	 0.0260517353	-0.0420901994	 0.338274
C	-0.0311104314	-0.7980378201	-1.1396535092	-0.353077
C	 0.0291212528	-2.1562856605	-0.6809846402	 0.161209
C	 0.0942891648	-2.1042503638	 0.7000341559	-0.199293
N	 0.075413285	-0.7879074613	 1.0688586305	-0.291586
C	 0.0233549353	-3.3248534007	-1.4771583028	 0.243551
C	 0.01749098	-4.3114330811	-2.1693053182	-0.456637
H	 0.8608450762	 1.9135966439	 0.5597750912	 0.128508
H	-0.0981062515	 1.9602523389	-0.9227229106	 0.142292
H	-0.9043250914	 1.8642212142	 0.6458274363	 0.128493
H	-0.0897357067	-0.4822549587	-2.1694885557	 0.099258
H	 0.1515272847	-2.8978374355	 1.4264381353	 0.126217
H	 0.1120921498	-0.4585148396	 2.0181268636	 0.260754
H	 0.0125112456	-5.1822084424	-2.7757172619	 0.178291
101.9192	141.0855	145.8062	257.935	325.8302	457.9438	500.8504	521.0525	526.5964	545.9049	642.316	643.1611	667.6346	701.5716	732.1026	820.5591	971.9879	989.5692	1014.3236	1063.3051	1139.9402	1169.5077	1250.4479	1320.8636	1391.028	1417.8966	1445.6977	1481.0563	1497.887	1544.0743	1626.7866	2229.4687	3017.9867	3062.7166	3126.4465	3257.5235	3274.0413	3507.0789	3674.7979
CC1=CC(=CN1)C#C	Cc1cc(c[nH]1)C#C	
InChI=1S/C7H7N/c1-3-7-4-6(2)8-5-7/h1,4-5,8H,2H3	InChI=1S/C7H7N/c1-3-7-4-6(2)8-5-7/h1,4-5,8H,2H3
