12
gdb 4669	5.4794	1.42668	1.13195	5.6961	60.09	-0.2306	-0.0362	0.1945	949.36	0.085159	-414.712133	-414.70548	-414.704536	-414.743061	24.463	
O	 0.1058157814	 1.3073794105	 0.1722838517	-0.419213
C	 0.0721217571	-0.0223225667	 0.0200585815	 0.457381
N	 0.0956221288	-0.6943428448	-1.0908362273	-0.390088
C	 0.0398105183	-2.0269447314	-0.6930802266	 0.175586
C	 0.0420890558	-3.1658283362	-1.6064307192	 0.081328
O	 0.0923644644	-3.1103667775	-2.8126839777	-0.273741
C	-0.0159206136	-2.115837029	 0.6783572062	-0.146126
N	 0.0045336215	-0.8165306888	 1.1315562697	-0.297609
H	 0.1515899623	 1.6836828753	-0.7165909283	 0.322801
H	-0.0087788959	-4.1444198163	-1.0734981671	 0.056858
H	-0.0666699327	-2.9580128437	 1.3483650533	 0.151164
H	-0.0234833475	-0.4979541615	 2.0858585238	 0.281659
133.6607	176.3011	231.2842	372.6762	429.468	432.2359	500.3882	523.0702	664.3431	691.7685	728.8891	752.5513	815.4859	996.933	1026.1749	1029.9996	1102.5256	1194.6303	1255.8149	1351.2604	1390.3333	1423.8539	1533.68	1578.7567	1647.9489	1804.8762	2851.4973	3277.4726	3665.5541	3796.9589
OC1=NC(C=O)=CN1	Oc1nc(C=O)c[nH]1	
InChI=1S/C4H4N2O2/c7-2-3-1-5-4(8)6-3/h1-2H,(H2,5,6,8)	InChI=1S/C4H4N2O2/c7-2-3-1-5-4(8)6-3/h1-2H,(H2,5,6,8)
