15
gdb 3062	11.12109	0.98167	0.96411	2.098	67.62	-0.2459	0.0276	0.2735	1214.2296	0.123638	-308.468418	-308.460507	-308.459562	-308.503255	26.693	
C	 0.0254503102	 1.5540511325	 0.0541728892	-0.365816
C	-0.0172810436	 0.015858321	-0.0061481638	-0.316486
C	-1.375677426	-0.5146391305	-0.0308221838	 0.104252
C	-2.503595274	-0.9382643326	-0.0534538008	 0.06913
C	-3.8564133994	-1.424416523	-0.0531981615	-0.110135
C	-4.3985921291	-2.2330420645	-1.1633624621	-0.160933
O	-4.0578616189	-2.8437062617	 0.0739115289	-0.216447
H	 1.0615895284	 1.9041220584	 0.0727206524	 0.117321
H	-0.4710375835	 1.9914656921	-0.8161575992	 0.129287
H	-0.4793170302	 1.9221766482	 0.9513370739	 0.130225
H	 0.5255994223	-0.3325136901	-0.8940135493	 0.132031
H	 0.5172977903	-0.4002496505	 0.8574072066	 0.134546
H	-4.5651117362	-0.8331933993	 0.5264177524	 0.114035
H	-5.4632467135	-2.1797939863	-1.3887854992	 0.116837
H	-3.7489606668	-2.4751419337	-2.0023613639	 0.122155
5.3156	97.6573	125.8831	196.4618	228.1327	336.1133	490.5018	502.4308	528.6419	705.3837	786.2255	831.1928	880.1457	959.6796	1007.1589	1077.8754	1087.1937	1104.5886	1148.8191	1160.1541	1185.957	1282.7035	1284.3572	1347.9359	1408.2047	1409.1161	1476.0323	1494.9518	1505.915	1518.7624	2365.6435	3021.5353	3046.0585	3049.2714	3083.2593	3109.8733	3120.1098	3124.9682	3176.5889
CCC#CC1CO1	CCC#C[C@H]1CO1	
InChI=1S/C6H8O/c1-2-3-4-6-5-7-6/h6H,2,5H2,1H3	InChI=1S/C6H8O/c1-2-3-4-6-5-7-6/h6H,2,5H2,1H3/t6-/m0/s1
