17
gdb 1479	6.82924	1.19774	1.09019	3.2548	61.44	-0.2499	-0.0204	0.2295	1052.4737	0.145476	-346.86207	-346.853274	-346.85233	-346.895833	29.951	
C	-0.0512439694	 1.5602853199	-0.1149648105	-0.390376
C	-0.0466998707	 0.0339981756	 0.0379406731	 0.021648
C	-1.4684560024	-0.528788482	 0.0716780679	-0.076144
O	-2.1402596536	 0.0302693687	 1.189169313	-0.421861
C	 0.769139938	-0.651494711	-1.0748170191	-0.283466
C	 2.2436263617	-0.3270142389	-0.9900947615	 0.162808
O	 2.9220447362	 0.0716021778	-1.9006715802	-0.240805
H	 0.9618073538	 1.9716848935	-0.0635617339	 0.119828
H	-0.4762891091	 1.8513893186	-1.0830376277	 0.114752
H	-0.6520629335	 2.0186606478	 0.6727633559	 0.138413
H	 0.4116099702	-0.2183520823	 1.0048955939	 0.089142
H	-1.9839811358	-0.2792852711	-0.8707134501	 0.087607
H	-1.4278049087	-1.6279472913	 0.1436398406	 0.083409
H	-3.0600674121	-0.2476503059	 1.1610408612	 0.289319
H	 0.6806058077	-1.7436119563	-0.9693641256	 0.115754
H	 0.4079679074	-0.3791767382	-2.0718799794	 0.118882
H	 2.6860467303	-0.4972101448	 0.0209698324	 0.07109
62.0941	70.7536	118.1021	193.4475	227.1302	239.1551	285.021	346.1099	411.2805	454.3054	553.2619	775.7739	862.4899	927.8542	936.063	985.2113	1021.4258	1076.296	1115.3474	1156.7221	1168.8168	1216.8576	1243.3095	1275.8677	1296.1758	1358.9126	1379.8141	1408.4951	1428.9258	1457.408	1461.8958	1489.8251	1506.2348	1519.1037	1836.9978	2844.3761	2957.358	2984.7009	3003.0239	3013.7938	3033.3184	3085.9573	3096.2792	3135.4527	3836.0469
CC(CO)CC=O	C[C@@H](CO)CC=O	
InChI=1S/C5H10O2/c1-5(4-7)2-3-6/h3,5,7H,2,4H2,1H3	InChI=1S/C5H10O2/c1-5(4-7)2-3-6/h3,5,7H,2,4H2,1H3/t5-/m1/s1
