14
gdb 4443	3.66246	1.81182	1.22448	4.2733	61.	-0.1741	0.0586	0.2326	919.4747	0.109297	-412.086418	-412.07857	-412.077626	-412.118111	29.287	
N	 0.150099696	 1.441000355	 0.0804453679	-0.605758
C	 0.0115375379	 0.0526519848	 0.003744046	 0.313077
C	-1.092350025	-0.7264285811	 0.0155735554	 0.180693
N	-2.4323457904	-0.3123906463	 0.0096140308	-0.609317
N	-0.633704288	-2.0717638563	-0.0127700287	-0.395371
C	 0.7476173594	-2.1289420877	 0.0050055844	 0.431322
O	 1.4734288654	-3.1026649457	 0.0536718747	-0.433118
N	 1.1253325961	-0.7834523844	-0.0438733272	-0.383759
H	 0.6376626448	 1.8255765927	-0.7242355662	 0.24516
H	-0.7716434191	 1.8621712551	 0.129432997	 0.256806
H	-2.9446438088	-0.5914418188	 0.8409743948	 0.24088
H	-2.9480182647	-0.6388713313	-0.8023047143	 0.240591
H	-1.1948260418	-2.8915012062	 0.1384866232	 0.254567
H	 2.072046298	-0.49836368	 0.1392203621	 0.264227
137.3989	203.2533	235.6129	259.2559	269.3181	325.5147	350.5179	384.0433	488.4383	569.714	635.1787	643.1884	668.0578	752.4213	780.5048	837.7511	868.2935	1002.3666	1064.9117	1175.4991	1212.5062	1246.5722	1282.3102	1338.8509	1396.2363	1481.5477	1637.2283	1656.6113	1775.4532	1843.6667	3479.0034	3484.4329	3538.8625	3584.7127	3680.359	3686.3091
NC1=C(N)NC(=O)N1	Nc1c(N)[nH]c(=O)[nH]1	
InChI=1S/C3H6N4O/c4-1-2(5)7-3(8)6-1/h4-5H2,(H2,6,7,8)	InChI=1S/C3H6N4O/c4-1-2(5)7-3(8)6-1/h4-5H2,(H2,6,7,8)
