17
gdb 3333	4.03519	3.18094	2.18294	0.3615	68.45	-0.2209	0.0256	0.2465	660.6697	0.151545	-272.588302	-272.582429	-272.581485	-272.617557	23.936	
C	-0.0445117546	 1.4929519202	-0.1438545094	-0.287932
C	 1.286296319	 0.8152322861	 0.0170243527	-0.012486
C	 2.082025831	 0.8618811356	 1.3088958725	-0.213864
C	 1.21275599	 0.7605161703	 2.5795495934	-0.263845
C	 0.1398720194	-0.2925470391	 2.4602020861	-0.074053
C	-0.3890994979	-0.642736739	 1.2853734109	-0.042424
C	 0.0233538009	-0.023916416	 0.0021810848	-0.058361
H	-0.4603817338	 2.0469536953	 0.690584656	 0.116112
H	-0.2967137288	 1.8979313549	-1.1182101509	 0.107331
H	 1.8975556854	 0.7634043273	-0.8797669539	 0.081304
H	 2.7839227026	 0.0181070856	 1.2994908031	 0.1016
H	 2.6904779229	 1.7728673888	 1.3508431718	 0.095264
H	 1.855646329	 0.5512418129	 3.4422109953	 0.099111
H	 0.7530880895	 1.7361573231	 2.7925233542	 0.110163
H	-0.2131725546	-0.7591854705	 3.3756311777	 0.081726
H	-1.1643485027	-1.4033564235	 1.2423663983	 0.081384
H	-0.1889356775	-0.5999482321	-0.8926359127	 0.07897
192.8552	248.9478	342.8041	455.4404	493.2779	579.9082	707.5386	730.5405	756.1484	809.4392	838.4482	887.3178	927.3896	950.4997	977.3556	992.6132	1037.4928	1058.853	1076.6031	1097.3822	1124.0305	1129.792	1193.6727	1215.8747	1222.1786	1272.3818	1341.6279	1356.3926	1386.1605	1414.0716	1425.5732	1479.3981	1487.2267	1500.2248	1709.9473	3002.8339	3020.1901	3051.6746	3059.4228	3130.3677	3139.704	3147.085	3158.4416	3174.4054	3217.1866
C1C2CCC=CC12	C1[C@H]2CCC=C[C@@H]12	
InChI=1S/C7H10/c1-2-4-7-5-6(7)3-1/h1,3,6-7H,2,4-5H2	InChI=1S/C7H10/c1-2-4-7-5-6(7)3-1/h1,3,6-7H,2,4-5H2/t6-,7+/m0/s1
