15
gdb 263	7.47672	2.0437	1.81354	3.4941	54.72	-0.2402	0.0381	0.2783	725.3315	0.130219	-287.734664	-287.726871	-287.725927	-287.767999	25.795	
C	-0.0592797191	 1.3454299169	 0.3073351558	-0.371498
C	 0.0028248675	 0.0180692244	-0.4521953378	-0.142051
N	-1.284208636	-0.6538056482	-0.5313056978	-0.306767
C	-1.5850714325	-1.7629972347	 0.2089616544	 0.408161
C	-3.007295059	-2.2803999821	 0.0466798964	-0.480758
O	-0.7830814963	-2.303562364	 0.949473837	-0.373107
H	 0.9284710006	 1.8165727714	 0.3350227817	 0.119391
H	-0.7512230919	 2.0480223066	-0.1704515047	 0.108433
H	-0.3931135545	 1.1850750823	 1.3364804158	 0.133436
H	 0.3862352011	 0.17945023	-1.467137389	 0.103043
H	 0.6735781018	-0.6805593794	 0.0521937375	 0.150919
H	-2.0103345997	-0.2324736703	-1.0866245293	 0.239522
H	-3.5600238453	-1.805376161	-0.7683851648	 0.10838
H	-2.9688524282	-3.3582809077	-0.1252826263	 0.152465
H	-3.5513667686	-2.1178496142	 0.9819171512	 0.150433
26.2082	42.2082	110.6334	213.9126	306.3435	377.9901	437.7696	459.2575	608.2115	639.279	776.9466	888.9006	935.9598	1000.81	1049.6614	1084.4592	1132.6755	1174.3834	1263.3794	1323.2549	1390.0911	1397.5762	1410.3296	1469.4676	1481.9583	1486.6031	1492.6599	1501.5222	1542.822	1781.0338	3031.3018	3033.3335	3047.8197	3095.8137	3116.1274	3119.88	3127.4179	3136.0064	3645.4529
CCNC(C)=O	CCNC(=O)C	
InChI=1S/C4H9NO/c1-3-5-4(2)6/h3H2,1-2H3,(H,5,6)	InChI=1S/C4H9NO/c1-3-5-4(2)6/h3H2,1-2H3,(H,5,6)
