16
gdb 1321	4.82908	1.87884	1.68118	4.3317	65.9	-0.2812	0.0318	0.313	798.1374	0.135985	-288.657055	-288.649459	-288.648515	-288.68824	27.959	
C	-0.0655496447	 1.5328693126	-0.0126371719	-0.456126
C	 0.0071971257	 0.0190102631	-0.0115345034	 0.334715
C	-1.2386738275	-0.677602946	-0.5238935257	-0.450427
C	 1.3351143858	-0.6332235818	-0.2632529211	-0.313794
C	 0.7378831241	-0.6788606168	 1.1398805154	-0.204893
C	 1.3416836143	 0.0786406161	 2.1978700215	 0.287809
N	 1.8224045199	 0.6940531075	 3.052370866	-0.346401
H	 0.8378864206	 1.9851846586	 0.4036138517	 0.140217
H	-0.1927217308	 1.9043010442	-1.0353845311	 0.121155
H	-0.9172954966	 1.8837765221	 0.579921365	 0.128131
H	-1.4398455834	-0.3886207776	-1.5615504534	 0.125642
H	-1.1343836686	-1.7665843396	-0.4952291339	 0.117786
H	-2.1151248682	-0.4055604858	 0.07412034	 0.127814
H	 1.3673654268	-1.5725216334	-0.8044238567	 0.12467
H	 2.2019049367	 0.0021191149	-0.4053545941	 0.135721
H	 0.3300087058	-1.6308560781	 1.4640393717	 0.127981
139.9999	149.3423	201.8951	238.9757	322.501	348.5098	368.2347	392.7448	551.2801	570.5881	704.1103	789.148	860.2039	919.7763	954.6285	975.9513	998.9043	1058.4217	1081.2245	1106.9724	1129.2795	1152.7335	1275.9759	1331.1631	1396.0677	1415.5754	1429.3933	1479.4279	1485.2461	1492.035	1499.2419	1512.9041	2348.5302	3028.3581	3034.9443	3092.9638	3096.7253	3104.5884	3121.3409	3138.356	3163.2746	3228.8759
CC1(C)CC1C#N	CC1(C)C[C@H]1C#N	
InChI=1S/C6H9N/c1-6(2)3-5(6)4-7/h5H,3H2,1-2H3	InChI=1S/C6H9N/c1-6(2)3-5(6)4-7/h5H,3H2,1-2H3/t5-/m0/s1
