12
gdb 1440	9.46544	1.40475	1.24209	5.3249	51.37	-0.297	-0.0094	0.2877	893.6806	0.088598	-360.556344	-360.548709	-360.547764	-360.589378	24.617	
C	 0.0886983686	 1.3719901482	 0.007771489	-0.243871
O	-0.0493770866	-0.0589642764	 0.0013963926	-0.233341
C	-1.3127354576	-0.512252823	 0.0121486991	 0.470322
O	-2.2950700419	 0.1752127525	 0.0261022924	-0.326838
C	-1.2870823631	-2.0414313142	 0.0039415612	-0.480748
C	-2.6168386579	-2.6375929032	 0.0126490038	 0.293998
N	-3.6542981562	-3.1430230302	 0.0191904708	-0.294119
H	 1.1610566313	 1.5635858918	-0.0019574046	 0.142436
H	-0.3885811239	 1.8048557003	-0.8743306254	 0.150394
H	-0.370753506	 1.7952311037	 0.9038948174	 0.150397
H	-0.7317722851	-2.3783654365	-0.8781079626	 0.18567
H	-0.7163973417	-2.387320773	 0.8726338663	 0.185701
27.7827	106.9206	135.2832	162.9845	279.863	372.9469	383.3536	461.8571	585.325	714.9745	901.9303	952.6525	957.9419	1037.186	1179.3962	1202.0286	1217.5704	1223.8277	1352.3403	1437.7887	1474.0634	1481.6013	1496.4843	1846.4792	2380.927	3057.3879	3058.9861	3094.8288	3136.3243	3168.8089
COC(=O)CC#N	COC(=O)CC#N	
InChI=1S/C4H5NO2/c1-7-4(6)2-3-5/h2H2,1H3	InChI=1S/C4H5NO2/c1-7-4(6)2-3-5/h2H2,1H3
