17
gdb 3386	5.57144	1.87779	1.80665	1.5961	63.72	-0.232	0.0791	0.3111	785.392	0.1487	-309.673226	-309.666359	-309.665415	-309.7042	25.642	
C	-0.0052697419	 1.4594953256	 0.2139858392	-0.373951
C	 0.008381793	-0.0160811994	-0.2028172847	-0.20734
C	-1.3672551788	-0.6440726003	-0.1291901896	-0.010875
C	-1.6637638535	-2.1355968071	-0.145493115	-0.16713
C	-0.6628212833	-2.8830363226	 0.7289125863	-0.089824
O	-0.8873229904	-1.9735440757	 1.8399626543	-0.2833
C	-1.916134413	-1.3074851131	 1.0984997252	 0.086756
H	 0.9959177865	 1.8971263517	 0.1528253156	 0.110824
H	-0.666352965	 2.0499560428	-0.4304472896	 0.109786
H	-0.3586241943	 1.5712302723	 1.2441704046	 0.123024
H	 0.3992278487	-0.1095826528	-1.2240457022	 0.093654
H	 0.6917905488	-0.5672845201	 0.4503392813	 0.115268
H	-2.1404036104	-0.0947151716	-0.6669139331	 0.084428
H	-2.355216377	-2.5929301916	-0.8404026897	 0.095594
H	-0.9931668506	-3.8934984089	 0.9946796061	 0.108878
H	 0.386731499	-2.9098846781	 0.4131758903	 0.104803
H	-2.8180588478	-1.0300445708	 1.6327211109	 0.099405
71.7845	187.5175	199.8437	269.8654	327.4024	472.4714	584.1341	724.8207	786.0014	795.0271	811.3398	883.2935	954.2517	960.3735	984.0433	1011.2647	1026.2844	1054.8876	1076.6962	1085.2838	1102.7075	1144.2085	1166.447	1207.9119	1260.4905	1299.7216	1314.4929	1341.349	1374.6116	1410.0475	1449.8325	1481.543	1499.2654	1505.5005	1520.531	3024.2897	3027.4017	3031.4665	3070.8579	3077.21	3100.5005	3106.8683	3114.806	3172.7414	3200.2791
CCC1C2COC12	CC[C@H]1[C@H]2CO[C@@H]12	
InChI=1S/C6H10O/c1-2-4-5-3-7-6(4)5/h4-6H,2-3H2,1H3	InChI=1S/C6H10O/c1-2-4-5-3-7-6(4)5/h4-6H,2-3H2,1H3/t4-,5+,6-/m0/s1
