11
gdb 183	10.19354	2.53906	2.08688	1.1556	46.34	-0.2498	-0.0046	0.2452	562.026	0.084017	-322.351046	-322.345309	-322.344365	-322.380266	19.932	
O	-0.1293945188	 1.3484878825	 0.0880420524	-0.392518
N	 0.0397346095	-0.0461987267	 0.0642698067	-0.206036
C	-1.0730168337	-0.6327521506	-0.0309507819	 0.353971
C	-2.5377542187	-0.2848795327	-0.1273587322	-0.157662
O	-2.8560357313	-1.6960721631	-0.1865399517	-0.27363
C	-1.463492177	-2.0877827653	-0.0965139546	-0.150967
H	 0.7778266118	 1.6649013468	 0.1615060515	 0.311829
H	-2.9682640461	 0.212414343	 0.7511857527	 0.130188
H	-2.8400125118	 0.2582539557	-1.031863609	 0.130184
H	-1.1251082303	-2.6378435109	-0.9837177612	 0.127319
H	-1.2533844435	-2.6838356186	 0.8005772473	 0.127322
130.1931	208.6339	282.0644	368.8969	475.5738	528.8824	733.9584	882.0102	911.7048	972.961	1010.0476	1017.4299	1073.8556	1126.8667	1139.3806	1184.127	1291.5638	1342.1095	1416.7566	1488.1425	1514.1457	1818.8587	3010.4706	3021.996	3056.9219	3057.2851	3814.3144
ON=C1COC1	ON=C1COC1	
InChI=1S/C3H5NO2/c5-4-3-1-6-2-3/h5H,1-2H2	InChI=1S/C3H5NO2/c5-4-3-1-6-2-3/h5H,1-2H2
