4
gdb 25	0	4.73269	4.73269	0.0023	27.7	-0.3696	-0.0926	0.277	242.9308	0.015951	-185.648533	-185.644825	-185.64388	-185.667652	10.398	
N	 0.0174573422	-1.1613421749	-0.0041534236	-0.288871
C	 0.0025321236	-0.0034427793	 0.0017993915	 0.28887
C	-0.0161141932	 1.3722098653	 0.0093487294	 0.28887
N	-0.0326430226	 2.5300827589	 0.0160909027	-0.28887
260.6704	575.8668	575.9392	886.3351	2269.0912	2433.6226
N#CC#N	N#CC#N	
InChI=1S/C2N2/c3-1-2-4	InChI=1S/C2N2/c3-1-2-4
