17
gdb 4200	4.07157	1.61574	1.57023	1.1239	71.76	-0.2385	0.0239	0.2623	889.3408	0.144212	-363.806084	-363.799283	-363.798339	-363.836898	27.008	
O	-0.1188024567	 1.3567797926	-0.0228910201	-0.402682
N	 0.0381591077	-0.0518794077	-0.0009274497	-0.310489
C	-1.0801023661	-0.6318625119	 0.0709972151	 0.488022
C	-2.5674947157	-0.3078142361	 0.0221052138	-0.112961
C	-2.6343435996	-1.5627766832	-0.9155231891	-0.233382
C	-1.4838594177	-2.0930092061	 0.0083921724	-0.102661
C	-2.2261507131	-2.2526801256	 1.357737743	-0.215688
C	-3.040475318	-0.9090609724	 1.3681434328	-0.214293
H	 0.7949832538	 1.6548163174	-0.0829399653	 0.303147
H	-2.9411049642	 0.669436348	-0.2718439284	 0.087788
H	-3.5701045427	-2.1300148696	-0.9176982054	 0.095957
H	-2.3005308531	-1.3533107901	-1.9326685095	 0.114329
H	-0.7940727205	-2.8752793265	-0.3009245921	 0.07945
H	-2.8711512934	-3.1357964765	 1.3625851693	 0.100782
H	-1.5360271766	-2.3304433981	 2.201221664	 0.109805
H	-2.7865881246	-0.271417954	 2.2180937589	 0.111485
H	-4.1215525094	-1.0734904203	 1.3768213003	 0.10139
124.2905	192.7399	280.8311	321.3862	397.0143	423.1322	522.8865	656.8237	685.6674	744.4701	813.7976	836.8648	856.2719	898.6756	907.2561	936.7675	967.0238	989.5191	1019.3044	1041.373	1066.8697	1123.7072	1131.8689	1156.1133	1210.657	1218.027	1249.8776	1258.7437	1264.0781	1315.0149	1325.5066	1405.2503	1491.6837	1493.174	1516.0156	1809.5722	3054.5886	3055.8156	3065.5988	3098.775	3116.4851	3133.21	3146.2021	3159.2151	3819.5373
ON=C1C2CC1CC2	ON=C1[C@H]2C[C@@H]1CC2	
InChI=1S/C6H9NO/c8-7-6-4-1-2-5(6)3-4/h4-5,8H,1-3H2	InChI=1S/C6H9NO/c8-7-6-4-1-2-5(6)3-4/h4-5,8H,1-3H2/t4-,5+
