14
gdb 3423	4.78462	2.84047	2.08556	2.3679	57.07	-0.2418	-0.0231	0.2187	629.9309	0.115161	-324.575287	-324.569574	-324.568629	-324.604733	21.952	
O	 0.063194959	 0.0330381741	 0.1229939448	-0.320699
C	 0.0010926676	 1.227823478	-0.0108840221	 0.425439
C	-1.2783181828	 2.0679496493	-0.1738149766	-0.360614
C	-0.783942516	 3.3795678568	-0.81153514	-0.158096
N	 0.6884851966	 3.4857074686	-0.6051316974	-0.092014
C	 1.0769676101	 3.3649614811	 0.7890665225	-0.24042
C	 1.1593524152	 2.1731459181	-0.1160387467	-0.135354
H	-1.9955458122	 1.5270530433	-0.7934381771	 0.139749
H	-1.7451641694	 2.2039947244	 0.8078191238	 0.134836
H	-0.9514247102	 3.3681813977	-1.8922827802	 0.122201
H	-1.2667663772	 4.2739934297	-0.4088776102	 0.116168
H	 2.0000644887	 3.8691255837	 1.058666397	 0.132807
H	 0.3105667578	 3.3764812421	 1.5615150962	 0.120137
H	 2.1167461028	 1.7959926532	-0.4571894638	 0.11586
129.6393	245.1969	388.2328	447.7586	535.0919	632.9899	647.6796	742.189	804.0253	816.1301	882.9364	945.1397	959.1757	998.7068	1045.4994	1081.0241	1104.7029	1150.1119	1188.1892	1196.2246	1241.7704	1250.8626	1289.7191	1322.2709	1366.2495	1457.9571	1500.2067	1513.3458	1843.7351	3056.2756	3059.1707	3101.1773	3104.576	3124.156	3182.4868	3195.2275
O=C1CCN2CC12	O=C1CCN2C[C@@H]12	
InChI=1S/C5H7NO/c7-5-1-2-6-3-4(5)6/h4H,1-3H2	InChI=1S/C5H7NO/c7-5-1-2-6-3-4(5)6/h4H,1-3H2/t4-,6?/m0/s1
