13
gdb 1399	7.02872	1.46239	1.26086	3.1706	60.16	-0.2606	0.012	0.2727	885.3082	0.100895	-303.469082	-303.461435	-303.460491	-303.500832	27.071	
N	-0.099145125	 1.4945631693	 0.0690946873	-0.501529
C	 0.0008725149	 0.0393709353	 0.0263164012	-0.161109
C	 0.6874167914	-0.5446501513	-1.2569368125	-0.340651
C	 0.0158420916	-0.0864291095	-2.4685422955	 0.251388
N	-0.5429305603	 0.3086645575	-3.4001772716	-0.304641
C	 0.7161121738	-0.4592447167	 1.2004775653	 0.339511
C	 1.342219874	-0.8800740784	 2.1350462078	-0.430782
H	 0.8262117683	 1.9132406287	 0.077828174	 0.235737
H	-0.5830662164	 1.8323234519	-0.7582881032	 0.249941
H	-1.023917959	-0.352876346	 0.0469208749	 0.13642
H	 1.73528579	-0.2272606126	-1.2821657286	 0.156595
H	 0.6784413536	-1.6390998821	-1.2242565055	 0.162449
H	 1.874757263	-1.2463683061	 2.9781200363	 0.206672
79.5095	124.4829	183.6935	236.3912	322.137	364.8859	399.9553	500.6083	551.7204	557.1585	648.1979	668.4972	836.2955	853.468	922.7361	958.6827	1009.2439	1123.3501	1181.9736	1247.3749	1286.5823	1346.5376	1415.7864	1459.5151	1654.3574	2244.4458	2358.3226	3030.2952	3053.4265	3098.4812	3489.4851	3502.6745	3577.4318
NC(CC#N)C#C	N[C@@H](CC#N)C#C	
InChI=1S/C5H6N2/c1-2-5(7)3-4-6/h1,5H,3,7H2	InChI=1S/C5H6N2/c1-2-5(7)3-4-6/h1,5H,3,7H2/t5-/m1/s1
