17
gdb 2583	2.9447	2.67343	1.68194	0.7085	70.34	-0.24	0.0559	0.2959	807.1004	0.146707	-272.54406	-272.536182	-272.535238	-272.575648	29.53	
C	 0.1809804915	 1.4747186757	 0.2549621742	-0.377972
C	-0.1456130941	 0.0304470365	-0.1353812205	-0.25149
C	 0.6725278735	-0.4791098026	-1.3200074775	 0.182507
C	 2.0636476091	-1.0349445344	-1.0442535842	-0.288066
C	 0.950648977	-1.9722259873	-1.4148218237	-0.305021
C	 0.4768650309	 0.2311445275	-2.557193758	 0.288064
C	 0.2951448618	 0.8343982953	-3.5827038884	-0.477461
H	 1.2322035652	 1.5774636781	 0.5440382203	 0.114756
H	-0.0027155146	 2.1546815153	-0.5820777021	 0.132001
H	-0.4348151375	 1.7999056054	 1.0989853648	 0.110275
H	 0.0362835405	-0.6358055531	 0.7166135456	 0.09256
H	-1.2115431495	-0.0563702449	-0.377997713	 0.106073
H	 2.8377830443	-0.842254057	-1.777045568	 0.125496
H	 2.4003530377	-1.0173043276	-0.012965688	 0.116444
H	 0.5237322194	-2.6003509106	-0.6401508207	 0.116136
H	 0.9633578127	-2.4165236004	-2.4027927372	 0.125606
H	 0.140856802	 1.3629148139	-4.4903460437	 0.190091
99.2254	152.3825	200.3465	223.7285	247.4973	339.1018	406.5603	536.1147	562.0408	583.3023	642.8894	653.5818	782.8698	792.0673	878.9131	897.2469	945.7942	961.5625	1015.5222	1056.3924	1080.7868	1089.7121	1119.9165	1193.6332	1266.1738	1282.4206	1347.4426	1368.658	1410.9635	1464.7866	1481.8495	1495.8138	1497.0534	1507.9695	2230.1943	3025.4807	3038.1158	3061.8126	3106.1428	3115.1767	3135.2461	3139.5679	3221.0953	3235.4594	3504.1682
CCC1(CC1)C#C	CCC1(CC1)C#C	
InChI=1S/C7H10/c1-3-7(4-2)5-6-7/h1H,4-6H2,2H3	InChI=1S/C7H10/c1-3-7(4-2)5-6-7/h1H,4-6H2,2H3
