19
gdb 3970	3.05861	1.47792	1.26798	1.3718	70.74	-0.2429	0.013	0.2558	1052.7565	0.161039	-402.167398	-402.15732	-402.156375	-402.201781	36.845	
C	-0.3097691241	 1.4476852792	 0.0038623852	-0.474255
C	-0.1669223153	-0.050042182	 0.03302671	 0.37938
N	-0.1344504238	-0.7415460125	 1.1053258387	-0.188084
O	-0.2322578581	 0.0684981346	 2.2478180891	-0.40093
C	-0.0088966556	-0.8102017036	-1.2802582058	 0.263247
C	 1.3909503782	-0.5266421454	-1.8600007788	-0.418869
C	-0.2364473494	-2.3166563383	-1.1222115696	-0.407108
O	-1.0101028485	-0.2534287741	-2.1451583971	-0.462361
H	-0.4206043085	 1.8090085717	-1.0170085391	 0.137542
H	-1.184435969	 1.7468657698	 0.5886194863	 0.146072
H	 0.5565036612	 1.9237210919	 0.4761520169	 0.136849
H	-0.219710355	-0.5825088096	 2.9572152355	 0.304202
H	 2.1730930078	-0.9224596447	-1.2056936635	 0.127494
H	 1.4958701798	-1.005612886	-2.8408424767	 0.105004
H	 1.5513528565	 0.5471346704	-1.9880909555	 0.124886
H	-1.243326419	-2.5091728241	-0.7469883639	 0.127976
H	-0.1237558834	-2.8067731738	-2.0964876541	 0.090337
H	 0.4792745448	-2.7598263768	-0.4276079981	 0.13057
H	-0.9048640887	-0.666548277	-3.0086042995	 0.278049
54.0459	101.1658	186.4178	215.7365	239.1433	244.1662	269.4816	305.1745	341.5826	359.3462	375.6818	400.4069	462.3122	503.7	581.5061	602.6022	750.8527	859.8751	922.4372	962.7399	970.8738	1003.9452	1036.4392	1050.8221	1134.5118	1188.494	1192.28	1240.3893	1371.382	1392.2671	1396.2362	1404.5974	1416.0193	1473.458	1477.7317	1478.2195	1484.9167	1495.75	1512.4992	1730.8044	3028.171	3037.6117	3046.3672	3098.8149	3101.925	3115.9086	3123.742	3145.8049	3166.6335	3812.0984	3820.6637
CC(=NO)C(C)(C)O	CC(=NO)C(C)(C)O	
InChI=1S/C5H11NO2/c1-4(6-8)5(2,3)7/h7-8H,1-3H3	InChI=1S/C5H11NO2/c1-4(6-8)5(2,3)7/h7-8H,1-3H3
