12
gdb 2556	3.68672	2.55057	1.70912	4.1164	61.3	-0.2669	0.0064	0.2733	716.2503	0.089077	-286.203815	-286.197043	-286.196098	-286.234302	24.791	
C	 0.0161575739	-1.1763652076	-0.0058668891	-0.422387
C	-0.00567286	 0.0246675357	-0.0029024914	 0.24861
C	-0.0149741767	 1.4630495484	 0.0117214643	 0.035288
C	 0.500196685	 2.1918672132	 1.2628196926	-0.280141
C	 1.3281539707	 2.209819828	 0.0250172311	-0.280149
C	-1.1003306922	 2.0925809369	-0.7051125769	 0.229714
N	-1.9620836112	 2.6133173504	-1.2735742436	-0.338697
H	 0.0263634238	-2.2384106036	-0.014025662	 0.206712
H	-0.0309513957	 3.0923524089	 1.5462557262	 0.15188
H	 0.8001154378	 1.5504036965	 2.0820253021	 0.148648
H	 2.2083320345	 1.5809441748	-0.0232338694	 0.148646
H	 1.3751969101	 3.1228358485	-0.5559429539	 0.151877
132.1711	201.7112	216.6064	220.7247	460.291	477.1942	588.9738	590.5654	609.2551	614.0931	675.8313	784.8811	841.2403	920.6522	969.5936	990.0013	1072.4364	1098.0853	1199.2479	1271.5464	1294.677	1463.4736	1489.8484	2246.6529	2357.4728	3153.5073	3156.3641	3243.3696	3257.33	3502.3674
C#CC1(CC1)C#N	C#CC1(CC1)C#N	
InChI=1S/C6H5N/c1-2-6(5-7)3-4-6/h1H,3-4H2	InChI=1S/C6H5N/c1-2-6(5-7)3-4-6/h1H,3-4H2
