15
gdb 4805	4.98871	1.31203	1.06225	2.5467	64.71	-0.1939	0.0213	0.2152	1062.6667	0.119542	-399.811999	-399.804188	-399.803244	-399.844429	28.678	
N	 0.0474278085	 1.3920808437	 0.101764149	-0.604785
C	 0.0121034639	-0.00718585	 0.0323069693	 0.234772
C	-1.0364255758	-0.8165124488	-0.2921773958	-0.105161
O	-0.6290564343	-2.1276953771	-0.3275308704	-0.185252
C	 0.6906519284	-2.143206547	-0.0248115751	 0.331609
C	 1.3728560335	-3.4738308524	 0.0043906882	-0.161736
O	 2.4902883368	-3.4792336325	 0.8758068068	-0.407151
C	 1.1411606802	-0.8796131722	 0.207815356	-0.341424
H	 0.6724394095	 1.7312602239	 0.8213059018	 0.244966
H	-0.8663516228	 1.8063602695	 0.2308932725	 0.243157
H	-2.0730650131	-0.6368361925	-0.5206618541	 0.119185
H	 0.6319693818	-4.2472574337	 0.2608415972	 0.107533
H	 1.7735130684	-3.7339665018	-0.9831724065	 0.130335
H	 2.179903204	-3.183076218	 1.7384128878	 0.282567
H	 2.1537185009	-0.5981324911	 0.4515341332	 0.111383
61.5501	144.3412	207.1356	219.438	321.3331	363.4152	381.473	454.7876	611.0498	621.2691	657.9736	672.8142	738.1244	759.1039	807.321	961.8735	994.334	1007.5238	1073.9082	1104.8976	1144.2382	1172.3027	1196.8473	1263.4314	1315.7233	1381.906	1423.1552	1455.6018	1502.124	1579.005	1651.2767	1678.1071	2985.9884	3044.9922	3257.8453	3281.9429	3539.8475	3629.3879	3805.6131
NC1=COC(CO)=C1	Nc1coc(CO)c1	
InChI=1S/C5H7NO2/c6-4-1-5(2-7)8-3-4/h1,3,7H,2,6H2	InChI=1S/C5H7NO2/c6-4-1-5(2-7)8-3-4/h1,3,7H,2,6H2
