19
gdb 3077	9.23702	0.96152	0.92435	1.311	68.07	-0.2614	0.0809	0.3423	1262.8933	0.171138	-310.902197	-310.89382	-310.892876	-310.935409	29.819	
O	-0.0969753414	 1.4031675464	-0.2503045889	-0.421832
C	 0.0037430363	 0.0154843121	 0.034102589	-0.074044
C	-1.3922062427	-0.5864695499	-0.0475419134	-0.156276
C	-1.4143769702	-2.0904184768	 0.2500148928	-0.209676
C	-2.8036425046	-2.687896991	 0.1725038386	 0.040003
C	-3.3665673145	-3.142689494	-1.1512802637	-0.253667
C	-2.9953415648	-4.1579550923	-0.0964380024	-0.278137
H	 0.7845188214	 1.7842871709	-0.203456821	 0.283996
H	 0.6696471902	-0.4908891322	-0.6847307897	 0.081139
H	 0.4247785271	-0.1552589451	 1.0391783144	 0.081533
H	-2.0411479069	-0.0539554785	 0.6588121211	 0.10262
H	-1.7991346897	-0.3961102962	-1.0475923679	 0.107541
H	-0.7588382603	-2.6163162305	-0.4580068342	 0.089153
H	-0.9921108127	-2.2734317858	 1.2482238311	 0.093815
H	-3.519253174	-2.2368147498	 0.8563433992	 0.08
H	-4.4177491622	-2.9732561176	-1.3566107951	 0.109518
H	-2.7273918219	-3.0661516042	-2.0253780114	 0.107978
H	-2.1088002993	-4.7611096444	-0.2645759237	 0.107436
H	-3.7936444799	-4.680024711	 0.4196017951	 0.108903
69.695	88.5183	126.705	146.6752	261.1526	293.2363	318.3168	409.0064	487.3064	755.2064	776.1012	810.201	834.3354	870.073	923.2526	968.6753	1017.2925	1047.9439	1055.2386	1068.1602	1077.2429	1092.2826	1141.1357	1190.2824	1199.0455	1225.8197	1231.2177	1242.4967	1300.2276	1307.872	1316.7246	1372.0491	1420.2475	1464.116	1469.9038	1484.8832	1500.9523	1508.7468	1529.3052	2953.5912	2977.3621	3002.3513	3030.9407	3034.0434	3077.1021	3126.9492	3129.2865	3133.5374	3204.6131	3219.9172	3829.431
OCCCC1CC1	OCCCC1CC1	
InChI=1S/C6H12O/c7-5-1-2-6-3-4-6/h6-7H,1-5H2	InChI=1S/C6H12O/c7-5-1-2-6-3-4-6/h6-7H,1-5H2
