14
gdb 4942	6.67377	1.25086	1.06037	0.5994	59.41	-0.1973	0.0575	0.2548	1035.5434	0.108088	-415.89285	-415.885154	-415.88421	-415.925383	27.738	
O	 0.0006724371	 1.390945901	 0.0539016665	-0.419914
C	-0.0193316079	-0.02607515	-0.0237603825	-0.181971
C	-1.441826361	-0.4772659442	-0.0096385776	 0.27832
C	-2.5682956931	 0.2857838472	 0.0635397184	-0.177621
N	-3.625359085	-0.6240899602	 0.0425555923	-0.303691
C	-3.0675590698	-1.8550780442	-0.0407028742	 0.439907
O	-3.8534796126	-2.9457725379	-0.0791704449	-0.426464
N	-1.7628361157	-1.827501549	-0.0752529233	-0.422515
H	 0.9180436246	 1.6760687992	 0.0390015431	 0.289722
H	 0.471280895	-0.3879782211	-0.9423976148	 0.100851
H	 0.5196230786	-0.4851377662	 0.8214882768	 0.100852
H	-2.7213381631	 1.3478720021	 0.1262544263	 0.139091
H	-4.6091131781	-0.421852817	 0.0807830533	 0.270209
H	-3.256800269	-3.7023212697	-0.1373488193	 0.313223
39.8459	183.3959	184.8039	241.6758	316.2744	367.9896	403.7775	469.5002	494.5871	647.9358	678.9405	701.0959	735.2624	754.1645	1001.4069	1029.8043	1050.0711	1080.8926	1101.4985	1193.3032	1210.7186	1232.1442	1264.7323	1301.5378	1376.9087	1468.6381	1515.4199	1566.5908	1626.177	1629.5701	2960.3763	2977.8476	3303.0401	3681.8443	3808.2985	3845.1124
OCC1=CNC(O)=N1	OCc1c[nH]c(O)n1	
InChI=1S/C4H6N2O2/c7-2-3-1-5-4(8)6-3/h1,7H,2H2,(H2,5,6,8)	InChI=1S/C4H6N2O2/c7-2-3-1-5-4(8)6-3/h1,7H,2H2,(H2,5,6,8)
