9
gdb 52	9.50228	9.29497	4.69874	0.5571	39.2	-0.2246	0.0199	0.2445	289.005	0.069883	-229.969129	-229.965414	-229.96447	-229.995393	13.358	
O	-0.0325581853	 1.3506512966	 0.009673761	-0.133897
C	 1.2531923679	 1.7916770989	-0.0003035114	 0.001573
C	 2.1166468117	 0.7437562321	-0.0144149409	-0.177809
C	 1.3039779576	-0.4385238686	-0.0128331612	-0.177808
C	 0.0162956801	-0.0077718531	 0.001912939	 0.001573
H	 1.3795108938	 2.86161135	 0.0042743276	 0.133394
H	 3.1937640561	 0.7986550126	-0.024586037	 0.10979
H	 1.638588929	-1.4638327149	-0.0215694921	 0.10979
H	-0.937362951	-0.5089992534	 0.0084389051	 0.133394
615.2642	625.1522	736.1628	767.0507	822.6889	861.7437	887.0873	891.2372	1018.4353	1065.9219	1096.536	1168.8144	1216.6485	1285.4946	1413.5939	1516.3267	1597.595	3252.0749	3262.9618	3283.431	3290.7227
O1C=CC=C1	o1cccc1	
InChI=1S/C4H4O/c1-2-4-5-3-1/h1-4H	InChI=1S/C4H4O/c1-2-4-5-3-1/h1-4H
