14
gdb 4801	4.80484	1.51968	1.163	2.0757	59.89	-0.1832	0.0565	0.2396	969.1998	0.107953	-415.891105	-415.88347	-415.882526	-415.923024	27.667	
C	-0.0552239685	 1.3837308112	-0.0164493752	-0.234655
O	-0.0474669493	-0.043549004	 0.0335412389	-0.268877
C	-1.2570568199	-0.6146506418	 0.013044214	 0.499303
N	-2.4267274293	-0.0194299371	-0.0466530984	-0.450288
C	-3.3353653571	-1.0545356261	-0.040939365	 0.338331
O	-4.6633509851	-0.8055457881	-0.0938891096	-0.437751
C	-2.7232223138	-2.2712691495	 0.0217867797	-0.212369
N	-1.3546893011	-1.960471687	 0.0565794115	-0.338213
H	 0.9919364751	 1.6867098681	 0.0081548306	 0.131724
H	-0.5331739015	 1.7368499336	-0.9349748627	 0.139353
H	-0.592828141	 1.7987377779	 0.8411993476	 0.139368
H	-4.7544599155	 0.153712461	-0.1302515741	 0.298564
H	-3.0914154584	-3.2801614609	 0.0445615894	 0.128222
H	-0.5841540644	-2.6035471572	 0.1047907132	 0.267289
99.9803	147.5924	203.6615	252.7176	306.9866	339.6915	407.3548	450.2178	526.1573	607.8672	639.5547	688.4182	737.5719	761.505	1002.7986	1038.7846	1070.5027	1102.7285	1178.5822	1184.0811	1222.5072	1294.5499	1327.1045	1413.5227	1466.0865	1478.3581	1501.749	1525.5964	1621.8566	1680.8625	3041.3113	3111.7786	3152.1208	3303.5173	3684.95	3813.0842
COC1=NC(O)=CN1	COc1nc(O)c[nH]1	
InChI=1S/C4H6N2O2/c1-8-4-5-2-3(7)6-4/h2,7H,1H3,(H,5,6)	InChI=1S/C4H6N2O2/c1-8-4-5-2-3(7)6-4/h2,7H,1H3,(H,5,6)
