15
gdb 2645	7.10642	0.94254	0.84523	0.291	73.3	-0.2384	0.0491	0.2875	1354.1388	0.122038	-271.336383	-271.327125	-271.32618	-271.3734	29.477	
C	 0.086136179	 1.513672177	-0.1477267172	-0.495731
C	 0.0355788321	 0.0673641914	 0.0111055702	 0.060188
C	-0.0100716645	-1.1274556847	 0.1416474002	 0.08824
C	-0.0584650382	-2.5832042757	 0.3018993799	-0.494191
C	-1.400123907	-3.1509305879	 0.1442110209	 0.08824
C	-2.4991706251	-3.6224363649	 0.0157657018	 0.060188
C	-3.8312377421	-4.1888162752	-0.140446341	-0.495731
H	 0.752484548	 1.8023130422	-0.9681490672	 0.146467
H	-0.9062022439	 1.9222531348	-0.3683882261	 0.149069
H	 0.4502759114	 2.0029587566	 0.7624524015	 0.14647
H	 0.62298316	-3.0522508098	-0.4221403633	 0.152393
H	 0.3378569664	-2.8542109148	 1.2908858584	 0.152392
H	-3.8636315531	-4.9126612965	-0.9622892222	 0.146467
H	-4.1544378214	-4.7063039069	 0.7695939818	 0.146471
H	-4.5696384317	-3.4090138756	-0.3573287276	 0.149068
15.5642	16.3654	63.5252	186.7599	188.2698	204.6784	293.9581	365.6232	380.7303	394.955	500.7678	765.4047	769.8131	931.3394	1052.6073	1053.5692	1053.7876	1055.8662	1140.6095	1178.9263	1231.114	1339.4008	1414.3427	1415.9056	1456.1751	1478.6519	1478.8323	1479.1902	1479.321	2378.474	2384.1053	2999.3336	3020.6041	3026.0854	3026.4905	3086.354	3086.3994	3087.3507	3087.3904
CC#CCC#CC	CC#CCC#CC	
InChI=1S/C7H8/c1-3-5-7-6-4-2/h7H2,1-2H3	InChI=1S/C7H8/c1-3-5-7-6-4-2/h7H2,1-2H3
