11
gdb 4257	3.99676	2.03341	1.34773	2.5168	54.38	-0.282	-0.0569	0.2251	805.6819	0.07417	-434.626169	-434.620149	-434.619205	-434.656582	22.212	
O	 0.0308785974	-0.0623626975	 0.0031163702	-0.34833
C	-0.0116520355	 1.1313156924	 0.0086172657	 0.499766
N	-1.1586356231	 1.88968522	 0.0287049787	-0.436549
C	-1.278079625	 3.2930867981	 0.0372291316	 0.445104
O	-2.3652685792	 3.8215327672	 0.055804955	-0.351607
C	 0.0212376962	 3.9576828269	 0.0232433869	-0.284778
C	 1.1358265228	 3.2199219964	 0.0042205496	 0.105685
O	 1.1620207671	 1.8651507322	-0.0032115863	-0.21663
H	-2.0245320731	 1.3664734323	 0.0384426776	 0.283266
H	 0.0552692648	 5.0371337994	 0.0286416247	 0.143278
H	 2.1409861277	 3.6235123727	-0.0071997635	 0.160796
139.3497	162.222	389.6823	391.8417	497.126	544.2714	586.4845	689.9443	745.8175	766.976	769.4152	838.8413	895.5633	975.6015	979.6781	1050.4981	1195.1193	1279.2456	1353.2252	1409.7215	1422.6202	1679.3997	1821.2569	1892.7662	3219.2405	3254.3961	3606.6081
O=C1NC(=O)C=CO1	O=c1[nH]c(=O)cco1	
InChI=1S/C4H3NO3/c6-3-1-2-8-4(7)5-3/h1-2H,(H,5,6,7)	InChI=1S/C4H3NO3/c6-3-1-2-8-4(7)5-3/h1-2H,(H,5,6,7)
