13
gdb 3681	3.7875	3.28295	1.78202	3.4669	55.54	-0.2301	0.0088	0.2388	674.9587	0.102779	-340.635968	-340.629419	-340.628475	-340.666206	23.958	
C	-0.0538819695	 1.5253000937	 0.0226580671	-0.519757
C	-0.0144965844	 0.0319435821	-0.0009857712	 0.105029
C	-0.0147195324	-0.8264617457	-1.050962991	 0.007462
O	 0.0067989847	-2.1027919311	-0.6448942075	-0.176902
N	 0.0343954942	-2.1257307662	 0.7554065594	-0.227649
C	 0.0116712393	-0.8629574633	 1.1204798178	 0.341062
N	-0.0567785373	-0.4976801611	 2.4558686087	-0.586369
H	 0.8538827143	 1.9526835888	 0.4671415137	 0.1267
H	-0.143475655	 1.93281617	-0.9875280053	 0.133643
H	-0.9040240951	 1.8922361787	 0.6089722902	 0.140807
H	-0.0354383487	-0.6721292948	-2.1196570166	 0.14257
H	 0.1519670976	-1.2654255938	 3.0808427158	 0.260594
H	 0.4845015622	 0.3237550325	 2.6870292888	 0.252809
129.7772	228.2777	236.1915	285.6786	351.5248	447.9401	590.0676	628.4693	665.3518	742.4091	764.3035	840.9073	910.9643	940.4081	1015.8794	1068.6058	1134.0879	1173.3399	1241.0295	1311.2712	1423.0101	1461.4404	1482.9483	1505.382	1547.9072	1641.7226	1684.5339	3021.9107	3071.6147	3115.5086	3253.6949	3550.1183	3648.2969
CC1=CON=C1N	Cc1conc1N	
InChI=1S/C4H6N2O/c1-3-2-7-6-4(3)5/h2H,1H3,(H2,5,6)	InChI=1S/C4H6N2O/c1-3-2-7-6-4(3)5/h2H,1H3,(H2,5,6)
