11
gdb 507	12.89478	1.51089	1.37546	4.0685	54.4	-0.2693	0.0206	0.2899	822.8323	0.083392	-248.143861	-248.136834	-248.13589	-248.176127	22.357	
C	 0.007241202	 1.4869022859	 0.0283454013	-0.49697
C	 0.0015486315	 0.0332486161	-0.0349547051	 0.088975
C	-0.0067162342	-1.1676101761	-0.086127512	 0.072152
C	-0.012314186	-2.6268812078	-0.1497080215	-0.469002
C	-1.3044232999	-3.2159243225	 0.2289846146	 0.278558
N	-2.3143229967	-3.6912335669	 0.5242981404	-0.301939
H	 0.7604839373	 1.8499229383	 0.7355596612	 0.154499
H	 0.2276522988	 1.9254415837	-0.9506399374	 0.154503
H	-0.9668298805	 1.867590031	 0.3531986305	 0.15976
H	 0.234070044	-2.9714945379	-1.162491678	 0.179732
H	 0.7583881616	-3.0463772134	 0.5100155193	 0.179732
18.1105	92.4673	195.6934	256.8604	361.3049	383.4087	391.7879	539.6812	776.0198	926.8684	935.9908	1051.9526	1054.2636	1170.4835	1234.9195	1338.8809	1414.4898	1449.3444	1476.101	1476.7729	2370.2867	2388.1134	3023.1384	3032.533	3052.3029	3095.7572	3097.0863	18.1353	92.4675	195.6937	256.8606	361.3046	383.4084	391.7876	539.681	776.0198	926.8684	935.9907	1051.9522	1054.2633	1170.4835	1234.9193	1338.8809	1414.4893	1449.3442	1476.1002	1476.772	2370.2861	2388.1133	3023.1385	3032.533	3052.3029	3095.7572	3097.0863
CC#CCC#N	CC#CCC#N	
InChI=1S/C5H5N/c1-2-3-4-5-6/h4H2,1H3	InChI=1S/C5H5N/c1-2-3-4-5-6/h4H2,1H3
