13
gdb 604	6.6252	2.92578	2.32381	0.9125	56.55	-0.2293	0.0338	0.2631	568.893	0.106781	-249.285024	-249.278639	-249.277695	-249.314555	23.195	
C	-0.1308928933	 1.4777912739	-0.1299851527	-0.311353
N	 0.0148270217	 0.0351810748	 0.0211811498	-0.079715
C	 1.3426159873	-0.5178016874	-0.1650320098	-0.237894
C	 0.732808525	-0.4710849981	 1.2069467642	-0.167314
C	 1.2714869488	 0.4112557876	 2.205365613	 0.344462
C	 1.6915534851	 1.1349376373	 3.0700326802	-0.474776
H	 0.7399941487	 2.0528473474	 0.2167909279	 0.115256
H	-0.2975434062	 1.6960966156	-1.1891926149	 0.12433
H	-1.008089791	 1.8105254139	 0.4326976694	 0.12902
H	 1.4003152099	-1.4652690693	-0.6944113958	 0.121431
H	 2.166694251	 0.1692081676	-0.3507094537	 0.118901
H	 0.3025874918	-1.3877128685	 1.6045644084	 0.117324
H	 2.0729604613	 1.7709535352	 3.829891924	 0.200328
151.7783	182.5836	225.6955	345.0345	371.4482	528.7451	586.7255	599.606	661.6571	735.3403	809.625	909.3255	1027.6287	1030.0308	1109.168	1119.1905	1131.8478	1174.3876	1208.9	1321.866	1370.1226	1450.6509	1490.0903	1493.157	1507.0159	2231.1307	2996.8437	3079.7868	3094.2944	3111.6838	3127.1696	3184.3066	3504.618
CN1CC1C#C	CN1C[C@H]1C#C	
InChI=1S/C5H7N/c1-3-5-4-6(5)2/h1,5H,4H2,2H3	InChI=1S/C5H7N/c1-3-5-4-6(5)2/h1,5H,4H2,2H3/t5-,6?/m1/s1
