16
gdb 1666	4.81876	1.79181	1.50749	2.0557	57.51	-0.2358	0.0132	0.2491	856.831	0.135627	-362.941781	-362.933249	-362.932304	-362.974805	29.208	
C	-0.0123612207	 1.3440071984	 0.0277413045	-0.241871
O	 0.0751000474	-0.086446049	-0.0245215962	-0.23233
C	 0.6996315006	-0.5866575893	-1.1049249906	 0.468058
O	 1.1769154965	 0.0919661969	-1.9807756545	-0.368976
C	 0.6745227129	-2.1085524186	-1.1038417603	-0.054668
C	-0.7064462839	-2.5748922471	-1.615036336	-0.402633
N	 1.8137106181	-2.5792997112	-1.8856049622	-0.523702
H	 0.9855829753	 1.7889393895	 0.042031114	 0.144572
H	-0.556118409	 1.7293851487	-0.8384724043	 0.14073
H	-0.5469313603	 1.5749153382	 0.9490334816	 0.134383
H	 0.7832160875	-2.4389754421	-0.0640713087	 0.10263
H	-0.8765624667	-2.2196668897	-2.6367323609	 0.125456
H	-0.7479672916	-3.6688142081	-1.6199921652	 0.117089
H	-1.5147000946	-2.2072265028	-0.9754986029	 0.127542
H	 1.636321878	-3.5170528583	-2.2301741821	 0.223179
H	 1.9224100703	-1.9700660354	-2.692040836	 0.240541
58.8898	118.0475	141.1226	206.5568	233.278	257.9345	288.3019	349.0815	370.2385	492.4197	665.3245	758.8744	841.7835	880.5467	926.9509	1016.9393	1039.5085	1083.0016	1174.5726	1179.7743	1200.523	1214.0748	1264.1462	1349.2778	1393.2962	1418.1311	1473.9621	1482.1596	1492.2044	1497.0752	1503.8614	1639.2475	1819.0568	3031.5897	3037.9604	3053.0526	3106.8592	3113.7235	3128.1698	3160.6705	3492.8866	3578.2889
COC(=O)C(C)N	COC(=O)[C@@H](C)N	
InChI=1S/C4H9NO2/c1-3(5)4(6)7-2/h3H,5H2,1-2H3	InChI=1S/C4H9NO2/c1-3(5)4(6)7-2/h3H,5H2,1-2H3/t3-/m1/s1
