15
gdb 1758	4.66897	1.9302	1.72235	1.7059	63.89	-0.2399	0.0503	0.2902	774.6689	0.122406	-308.46776	-308.459917	-308.458973	-308.49906	29.11	
C	-0.0678510133	 1.5577156322	-0.0438058026	-0.456081
C	-0.0143769467	 0.0379160527	 0.0001436296	 0.126363
C	 1.3386577352	-0.6506448142	-0.2078137457	-0.357794
C	 0.7076258895	-0.6376190543	 1.1550475072	 0.082709
O	 1.2165107712	 0.1983775167	 2.149747787	-0.421177
C	-1.175811995	-0.636840661	-0.51660512	 0.275361
C	-2.1524210025	-1.1886440804	-0.9518912491	-0.455398
H	 0.8078866358	 1.9839743482	 0.447782532	 0.129342
H	-0.1059799361	 1.9101677839	-1.0787295865	 0.122619
H	-0.9592317452	 1.9243870776	 0.4735585496	 0.12987
H	 1.3621536899	-1.5784435726	-0.7670536012	 0.124031
H	 2.1849968074	 0.0105031751	-0.3636207211	 0.117565
H	 0.2674796864	-1.5661158505	 1.5154334219	 0.101005
H	 2.0781569078	-0.1423480942	 2.4117484631	 0.291124
H	-3.0148850543	-1.6760951792	-1.3334890644	 0.190459
148.4197	163.0264	180.284	243.6132	262.0052	303.496	422.3646	477.8052	531.7798	549.0509	587.1247	641.6487	676.5871	801.7025	880.7116	929.3461	968.332	1034.0733	1043.5792	1105.395	1115.411	1180.0408	1265.8857	1291.6631	1314.2925	1404.7687	1419.42	1475.8422	1487.6868	1500.9679	2233.5168	3046.8069	3111.2289	3115.8421	3133.9531	3142.2379	3230.0925	3503.5574	3806.6429
CC1(CC1O)C#C	C[C@]1(C[C@H]1O)C#C	
InChI=1S/C6H8O/c1-3-6(2)4-5(6)7/h1,5,7H,4H2,2H3	InChI=1S/C6H8O/c1-3-6(2)4-5(6)7/h1,5,7H,4H2,2H3/t5-,6-/m1/s1
