15
gdb 1065	7.25818	1.95273	1.55954	1.3933	63.62	-0.1704	0.0575	0.2278	778.171	0.127208	-304.720708	-304.713909	-304.712965	-304.751168	25.578	
C	-0.0109227315	 1.4232657262	-0.0458222376	-0.317538
N	 0.0319178273	-0.0096684774	 0.1739014884	-0.378796
C	-1.1778178257	-0.7081953891	 0.0681311473	 0.306257
C	-2.4545526197	-0.1799093033	 0.0550582813	-0.174164
N	-3.3401960439	-1.2404968267	 0.004554001	-0.243733
C	-2.6523586871	-2.4190545807	-0.0286871558	-0.062649
C	-1.3082209272	-2.1292841589	 0.0126815075	-0.255018
H	 1.0041385488	 1.8268122973	-0.0096590999	 0.115581
H	-0.4719359702	 1.7122483463	-1.0061114724	 0.100958
H	-0.5871090439	 1.9010715214	 0.7550818999	 0.12591
H	 0.7726130097	-0.4569868841	-0.3478365923	 0.227412
H	-2.8043412279	 0.8375473417	 0.0846287163	 0.104789
H	-4.3394773314	-1.1515152801	-0.0144101029	 0.256537
H	-3.1664644982	-3.3656266196	-0.0754302677	 0.112759
H	-0.500661939	-2.8457375832	 0.0122139467	 0.081694
101.0125	199.5059	234.582	316.6061	385.5064	445.9419	571.1843	614.0137	626.1427	679.8007	715.9548	744.6182	800.9071	900.1889	966.0771	1066.5496	1084.3526	1112.294	1152.4409	1160.3581	1173.6098	1284.8508	1314.6958	1401.0417	1458.2804	1474.858	1481.6193	1490.5269	1522.5316	1543.501	1632.8452	2954.5652	3052.4055	3111.2533	3240.522	3266.832	3278.9513	3576.408	3700.4567
CNC1=CNC=C1	CNc1c[nH]cc1	
InChI=1S/C5H8N2/c1-6-5-2-3-7-4-5/h2-4,6-7H,1H3	InChI=1S/C5H8N2/c1-6-5-2-3-7-4-5/h2-4,6-7H,1H3
