16
gdb 2988	4.56297	1.90763	1.46718	2.574	61.76	-0.2482	-0.0238	0.2244	837.1625	0.134829	-325.752244	-325.744499	-325.743555	-325.784676	27.104	
C	 0.0361290877	 1.356189326	-0.1492810988	-0.401453
C	 0.0707291945	-0.1697797744	 0.0180452659	-0.029884
C	 0.7986059296	-0.5030353702	 1.3138630714	 0.162517
O	 1.9759085339	-0.7389104169	 1.3898555006	-0.249906
N	-1.2889929764	-0.6923715351	 0.107602515	-0.073458
C	-1.9695475309	-0.9521215497	-1.1565650298	-0.219513
C	-1.4858507253	-2.0789271407	-0.3130884118	-0.227383
H	 1.051228653	 1.7566188894	-0.2119319764	 0.134853
H	-0.5017435294	 1.6207865947	-1.0643630061	 0.125887
H	-0.4802308623	 1.823853019	 0.6944733748	 0.132044
H	 0.6469826019	-0.6160544145	-0.8102885625	 0.078813
H	 0.1396024092	-0.4835176434	 2.2111609521	 0.087365
H	-3.0248610078	-0.6970973353	-1.1865636613	 0.122162
H	-1.4265216193	-0.7544768771	-2.0795452832	 0.114786
H	-0.6194701117	-2.6321085617	-0.6717249267	 0.120538
H	-2.1813372867	-2.65843188	 0.2864449868	 0.122632
52.1846	96.2588	202.2711	224.7198	256.0472	286.4732	436.1321	464.6409	508.5147	770.1186	840.6051	892.1045	905.5604	929.5677	1000.5984	1025.9564	1081.2475	1114.3003	1118.8569	1124.1714	1155.9982	1179.4843	1201.5478	1305.6422	1314.9386	1345.0551	1394.9077	1409.8688	1488.3862	1493.1594	1497.482	1520.6032	1838.237	2884.2647	2960.5316	3042.7417	3096.5325	3102.6516	3115.5273	3128.3735	3180.9899	3196.0303
CC(C=O)N1CC1	C[C@@H](C=O)N1CC1	
InChI=1S/C5H9NO/c1-5(4-7)6-2-3-6/h4-5H,2-3H2,1H3	InChI=1S/C5H9NO/c1-5(4-7)6-2-3-6/h4-5H,2-3H2,1H3/t5-/m0/s1
