15
gdb 4080	4.66538	1.52932	1.19601	1.4587	69.55	-0.2317	-0.0362	0.1955	960.7782	0.11967	-399.760755	-399.753691	-399.752747	-399.792021	26.721	
O	-0.0507621309	 1.3582806018	-0.0097435028	-0.391719
N	 0.0436056068	-0.0393886304	-0.0332605867	-0.208289
C	-1.1069996187	-0.604905838	-0.0375888426	 0.348064
C	-1.1309788318	-2.1163193225	-0.0183002824	-0.166495
O	-2.1678076943	-2.6104656029	-0.8502310047	-0.243109
C	-3.44925776	-2.1775747509	-0.4434605826	-0.120392
C	-3.5167479053	-0.7043447089	-0.1548059502	-0.088058
C	-2.4142650157	 0.0408085984	-0.0087802811	-0.127307
H	 0.8747776389	 1.6230025548	 0.0035829237	 0.308921
H	-0.1906579912	-2.5211113658	-0.3954813335	 0.131214
H	-1.2712159057	-2.4701667249	 1.0180317475	 0.10061
H	-4.1321859399	-2.4358969461	-1.2610358449	 0.125882
H	-3.791766424	-2.7427771424	 0.4451552424	 0.104032
H	-4.50748332	-0.2650058079	-0.0750642231	 0.106951
H	-2.4580043981	 1.1099938456	 0.1541300008	 0.119698
96.8759	234.2349	243.3346	308.4304	331.9245	416.0115	437.4623	497.4006	577.165	626.9762	774.7509	782.6445	872.1162	912.0056	965.0484	994.2181	1006.0767	1022.0047	1070.1922	1125.2235	1193.8461	1238.2994	1292.1	1302.2868	1359.6181	1391.2725	1409.7743	1423.3003	1476.5694	1488.2787	1679.5462	1713.3361	2920.447	2954.4952	3056.6226	3121.5075	3168.2628	3221.0859	3824.2025
ON=C1COCC=C1	ON=C1COCC=C1	
InChI=1S/C5H7NO2/c7-6-5-2-1-3-8-4-5/h1-2,7H,3-4H2	InChI=1S/C5H7NO2/c7-6-5-2-1-3-8-4-5/h1-2,7H,3-4H2
