16
gdb 2395	5.48104	1.96749	1.76146	1.9956	60.93	-0.242	0.0611	0.3031	763.5419	0.136687	-325.726182	-325.719199	-325.718255	-325.757142	25.476	
C	-0.0229892169	 1.5363463851	-0.1137068136	-0.392567
C	-0.0041978565	 0.034242429	 0.02675107	-0.066954
N	 1.315596283	-0.6276374259	-0.1002764585	-0.375617
C	 0.6190654266	-0.6528443239	 1.1765336276	 0.28367
C	 1.1732276041	-0.1230929756	 2.4949287579	-0.129214
O	 0.6123388577	-1.2574493013	 3.1985181112	-0.275991
C	 0.1285455638	-1.8558063094	 1.9782689269	-0.146535
H	 0.8634219888	 1.976568714	 0.3509267328	 0.12776
H	-0.0289374601	 1.8290823025	-1.1688435626	 0.123832
H	-0.9131745549	 1.962907883	 0.3613029929	 0.118659
H	-0.8541983314	-0.4807651216	-0.4218241764	 0.084488
H	 1.229304764	-1.5250240564	-0.5725269803	 0.229638
H	 2.2683944029	-0.0961920886	 2.5533595466	 0.109675
H	 0.7627610207	 0.8275515032	 2.8571740868	 0.104394
H	-0.9557340068	-2.0260660118	 1.9999955669	 0.104765
H	 0.637364475	-2.8046257821	 1.7539975719	 0.099999
100.1653	174.6811	185.9089	221.3938	363.0887	438.9995	453.4847	562.4739	776.5912	832.9241	885.846	937.3808	946.4506	981.4638	1015.7287	1025.1555	1054.6395	1080.3982	1127.8113	1133.4057	1147.0983	1159.6682	1231.9219	1271.0489	1302.9765	1328.055	1383.3013	1411.5189	1478.6064	1490.4585	1503.1675	1514.2688	1529.0977	2990.6343	3015.8895	3034.7001	3038.6521	3060.8155	3098.4563	3098.7087	3122.2933	3489.138
CC1NC11COC1	C[C@H]1NC21COC2	
InChI=1S/C5H9NO/c1-4-5(6-4)2-7-3-5/h4,6H,2-3H2,1H3	InChI=1S/C5H9NO/c1-4-5(6-4)2-7-3-5/h4,6H,2-3H2,1H3/t4-/m1/s1
