15
gdb 1172	4.2202	1.86552	1.76295	2.0516	58.82	-0.2598	0.0281	0.2879	780.1821	0.121833	-345.61476	-345.606416	-345.605472	-345.646596	30.608	
C	 0.0131607202	 1.525408446	 0.0429804404	-0.417137
C	-0.0728249713	-0.0068583643	-0.0226318655	 0.121658
O	 0.4257245781	-0.5912103631	 1.1909814013	-0.458589
C	-1.5435393597	-0.4843066671	-0.0693484724	-0.052477
O	-2.2440642711	-0.0865731139	 1.0868567196	-0.424382
C	 0.6575115543	-0.5257044379	-1.1850739713	 0.329078
C	 1.2564105459	-0.9503207905	-2.1371858741	-0.477239
H	 1.0484341217	 1.8459819189	 0.1961467121	 0.111004
H	-0.342748435	 1.9724677198	-0.8893634242	 0.128671
H	-0.6054720985	 1.8822859371	 0.8687534008	 0.137813
H	 1.3413053845	-0.3156366852	 1.3038856686	 0.287683
H	-2.0477156211	-0.0379259731	-0.9304936794	 0.116635
H	-1.5436035207	-1.5763395829	-0.1943945497	 0.103801
H	-1.7200767094	-0.4028920872	 1.8331662347	 0.293023
H	 1.7849356922	-1.3285213266	-2.9774792609	 0.200459
132.2647	143.162	192.6088	235.233	243.9812	295.1035	349.5788	400.0377	455.1489	495.3169	551.5167	567.6095	634.4678	667.5753	751.5704	899.3383	946.2879	958.1067	1078.7401	1109.5934	1137.4042	1198.6098	1249.8996	1346.978	1380.3739	1403.7577	1432.0114	1481.234	1494.0688	1498.6564	2230.19	3008.0122	3043.7209	3100.8897	3115.0042	3141.6418	3499.586	3788.9335	3820.1111
CC(O)(CO)C#C	C[C@@](O)(CO)C#C	
InChI=1S/C5H8O2/c1-3-5(2,7)4-6/h1,6-7H,4H2,2H3	InChI=1S/C5H8O2/c1-3-5(2,7)4-6/h1,6-7H,4H2,2H3/t5-/m0/s1
