19
gdb 2047	4.57259	2.29136	2.05252	0.1541	71.16	-0.2467	0.0925	0.3392	749.1991	0.171906	-273.761263	-273.754066	-273.753122	-273.791677	28.321	
C	-0.0355984226	 1.5333268594	 0.0555143552	-0.462566
C	 0.0603540972	 0.0187086802	 0.0464517245	 0.353473
C	-1.1793223641	-0.6490212173	-0.5299371485	-0.451929
C	 1.339324144	-0.7272743258	-0.2513045917	-0.083806
C	 2.5807834884	-0.0251483442	 0.3138227855	-0.242477
C	 1.9437083615	-0.0741006176	 1.740650043	-0.242485
C	 0.7121304198	-0.7754710152	 1.1534223684	-0.083793
H	 0.8520339042	 2.0166536903	 0.4690439993	 0.117155
H	-0.1751324965	 1.916928818	-0.9622279046	 0.11111
H	-0.8962638331	 1.8615864126	 0.6504244154	 0.111102
H	-1.3517773798	-0.3318286511	-1.5651084754	 0.112138
H	-1.0868248217	-1.7398767325	-0.5262243713	 0.11173
H	-2.0725200341	-0.3874460858	 0.0494667318	 0.112139
H	 1.3636883688	-1.5020588767	-1.0100869706	 0.074711
H	 3.4771679379	-0.6458586605	 0.2474968132	 0.100582
H	 2.8183142112	 0.961020123	-0.0982038713	 0.093812
H	 2.5088860349	-0.7202931366	 2.4160725631	 0.100579
H	 1.7707341327	 0.8805104728	 2.2481120006	 0.093815
H	 0.1837692713	-1.5927253831	 1.6325529434	 0.07471
169.7993	226.7936	242.5905	257.9783	300.6096	358.4868	412.0108	486.1188	653.6796	716.1154	788.3312	838.1163	849.8287	932.4981	956.9202	964.7958	971.0375	995.9369	1028.6607	1038.8931	1062.8092	1098.1403	1109.6679	1161.5152	1210.4529	1224.0745	1262.5444	1264.2353	1293.4084	1302.2254	1409.2471	1417.442	1430.5383	1475.0043	1488.9293	1489.1627	1506.432	1507.3725	1513.9399	3020.2506	3025.7401	3043.6585	3051.1398	3077.2844	3081.1803	3091.592	3097.0268	3109.4077	3116.6693	3158.1579	3169.7011
CC1(C)C2CCC12	CC1(C)[C@H]2CC[C@@H]12	
InChI=1S/C7H12/c1-7(2)5-3-4-6(5)7/h5-6H,3-4H2,1-2H3	InChI=1S/C7H12/c1-7(2)5-3-4-6(5)7/h5-6H,3-4H2,1-2H3/t5-,6+
