12
gdb 4288	4.13145	1.89334	1.29834	6.992	59.01	-0.2309	-0.021	0.2099	842.5069	0.085934	-414.718012	-414.711614	-414.71067	-414.748578	24.167	
O	-0.1346286444	 1.3517489329	 0.0109340491	-0.417451
C	 0.0471762021	 0.01674303	 0.0027028757	 0.498373
C	 1.212195794	-0.6671319282	-0.0075220892	-0.397685
C	 1.2128607568	-2.1311187818	-0.0154493648	 0.391246
O	 2.2287033525	-2.7949794877	-0.0246357095	-0.36506
N	-0.0669179611	-2.7649348072	-0.0116871361	-0.301293
C	-1.1206128853	-2.0408884435	-0.0018680193	 0.099305
N	-1.1414332946	-0.6667645789	 0.0056679143	-0.347837
H	 0.7268196687	 1.7847387891	 0.0085061138	 0.319467
H	 2.1654462279	-0.1527768896	-0.0100785836	 0.105817
H	-2.1076494714	-2.5010817772	 0.0011722232	 0.137779
H	-2.0064863151	-0.1492364278	 0.0133183264	 0.27734
127.1742	204.9697	364.6741	399.0791	421.8942	486.9602	524.9065	535.5252	591.159	684.8049	767.1583	788.6566	845.048	908.0628	961.4193	1011.0758	1112.3078	1183.7914	1216.3995	1263.5404	1400.6318	1424.771	1537.6583	1644.582	1722.0579	1780.3822	3144.6917	3205.5893	3641.6428	3819.967
OC1=CC(=O)N=CN1	Oc1cc(=O)nc[nH]1	
InChI=1S/C4H4N2O2/c7-3-1-4(8)6-2-5-3/h1-2H,(H2,5,6,7,8)	InChI=1S/C4H4N2O2/c7-3-1-4(8)6-2-5-3/h1-2H,(H2,5,6,7,8)
