13
gdb 881	6.6808	2.22439	1.68627	3.5255	57.83	-0.1875	0.0349	0.2224	712.3352	0.102241	-340.667287	-340.660561	-340.659617	-340.697882	24.249	
C	 0.0768315492	 1.4776624061	 0.0334089079	-0.489048
C	-0.0718054678	 0.0058097016	-0.0275630476	 0.340704
C	-1.1092393445	-0.8180074678	-0.2184222001	-0.189445
N	-0.6143597259	-2.1216018684	-0.1689191929	-0.32926
C	 0.7438022833	-2.0968620149	 0.0544657136	 0.46113
N	 1.5162469358	-3.0969432116	 0.1562702804	-0.60825
O	 1.0803104837	-0.7582244497	 0.142999408	-0.245946
H	 0.7631784145	 1.8425812667	-0.7395481895	 0.141677
H	-0.8938884351	 1.9566840793	-0.1148121691	 0.135476
H	 0.4759389605	 1.7995018506	 1.0023461443	 0.141677
H	-2.1500771463	-0.6003283319	-0.3841390509	 0.144768
H	-1.1271660917	-2.9768608674	-0.2758103809	 0.274136
H	 2.4726972143	-2.7959344725	 0.3206562668	 0.222379
93.9505	180.8615	205.744	280.7972	364.7185	480.3262	594.5114	622.5806	707.9958	730.0309	756.5706	768.736	926.4097	965.1201	1013.6343	1057.8316	1068.8835	1094.7459	1218.0388	1273.8832	1374.0027	1406.3382	1422.686	1467.0316	1494.4875	1732.7249	1794.6045	3027.8047	3077.1881	3126.5714	3289.5073	3544.8369	3715.6022
CC1=CNC(=N)O1	CC1=CN[C@H]([NH])O1	
InChI=1S/C4H6N2O/c1-3-2-6-4(5)7-3/h2H,1H3,(H2,5,6)	InChI=1S/C4H7N2O/c1-3-2-6-4(5)7-3/h2,4-6H,1H3/t4-/m0/s1
