15
gdb 4101	3.527	1.92635	1.27062	1.8423	67.98	-0.2203	-0.0323	0.188	911.4061	0.120069	-395.962326	-395.954718	-395.953774	-395.99428	28.527	
N	-0.0464483533	 1.3677543151	 0.2033115931	-0.57914
C	-0.0209622736	 0.0102195847	 0.0669915573	 0.315356
N	-1.0781320231	-0.7189595797	-0.0017385793	-0.285856
C	-0.7035328582	-2.1289681775	-0.0828019713	-0.162644
C	 0.8373634897	-2.2210281298	 0.0772686971	-0.309431
C	 1.2515284262	-0.7697854815	 0.0273432251	 0.338351
N	 2.47572221	-0.4225052861	-0.0679734985	-0.233788
O	 2.6545898194	 0.9739819158	-0.108443867	-0.397453
H	 0.7924212491	 1.8708942481	-0.0291545947	 0.27068
H	-0.9325493248	 1.8101019519	 0.017225378	 0.254556
H	-1.2322128174	-2.6981155373	 0.6902671507	 0.1087
H	-1.0343458438	-2.5376479723	-1.0464188768	 0.109095
H	 1.1161354327	-2.6610360861	 1.0404135297	 0.130884
H	 1.3247153813	-2.8115332168	-0.7017550701	 0.127906
H	 3.6101386957	 1.0546827715	-0.1881055231	 0.312785
57.8391	207.1443	262.3339	272.9438	322.1298	373.1902	415.0186	442.6035	490.5304	538.6168	678.4229	726.0825	733.2885	765.8459	827.2117	941.9114	978.7456	1003.4562	1051.7788	1150.7297	1185.7414	1200.9781	1233.9319	1284.1686	1338.6512	1395.0712	1421.0382	1471.251	1507.0161	1610.2655	1699.1126	1730.8803	3020.3244	3047.1948	3059.1049	3106.934	3594.2419	3726.5128	3832.1547
NC1=NCCC1=NO	NC1=NCCC1=NO	
InChI=1S/C4H7N3O/c5-4-3(7-8)1-2-6-4/h8H,1-2H2,(H2,5,6)	InChI=1S/C4H7N3O/c5-4-3(7-8)1-2-6-4/h8H,1-2H2,(H2,5,6)
