15
gdb 1922	4.72346	2.93915	2.51958	1.2762	60.66	-0.2275	0.0119	0.2394	597.6453	0.126188	-308.480308	-308.474602	-308.473658	-308.50924	23.618	
O	-0.0825057539	 1.4245779856	-0.0083043619	-0.48547
C	-0.0159617231	 0.0354223135	 0.0128235523	 0.380011
C	 0.3226713217	-0.809135288	 1.2982549745	-0.267519
C	-0.3698608325	-1.9202866606	 0.4359143483	-0.077294
C	-1.3385468876	-0.7846750684	-0.0519442535	-0.233377
C	 0.5970351285	-1.9959616115	-0.755887755	-0.073766
C	 0.8311635211	-0.7134189729	-1.038615327	-0.164122
H	 0.8144671438	 1.7734929953	 0.027295079	 0.278849
H	 1.3756761481	-0.9531938208	 1.5523925661	 0.086776
H	-0.2624883832	-0.5040438818	 2.1711214862	 0.096457
H	-0.7399487038	-2.8436405086	 0.8757433457	 0.066638
H	-2.0662643873	-0.4777674655	 0.7052619673	 0.098357
H	-1.8077056332	-0.9043990166	-1.0305578751	 0.095518
H	 0.9691654055	-2.8952411959	-1.2262252049	 0.101305
H	 1.4373008457	-0.2522657738	-1.806439522	 0.097638
240.044	334.232	360.945	458.4437	540.393	543.2614	629.722	691.7473	711.943	830.0614	838.1159	898.8234	905.1634	914.7445	943.4363	996.2652	1009.3494	1053.0493	1055.2489	1101.8582	1130.0458	1161.7111	1214.5362	1222.3505	1256.0174	1272.477	1334.3891	1363.0244	1475.0382	1515.7731	1631.506	3046.6906	3058.5749	3118.938	3128.2128	3141.4172	3213.1202	3241.2702	3808.2643
OC12CC(C1)C=C2	O[C@@]12C[C@@H](C1)C=C2	
InChI=1S/C6H8O/c7-6-2-1-5(3-6)4-6/h1-2,5,7H,3-4H2	InChI=1S/C6H8O/c7-6-2-1-5(3-6)4-6/h1-2,5,7H,3-4H2/t5-,6-
