10
gdb 1008	9.85901	2.01037	1.66986	1.2645	58.6	-0.238	-0.035	0.203	673.579	0.067576	-322.172641	-322.167108	-322.166164	-322.201892	20.117	
C	 0.1079407726	-1.1792427321	-0.0055961907	-0.409741
C	 0.0244664896	 0.0219171268	 0.0023517096	 0.253274
C	-0.0966768333	 1.4192752998	 0.011913897	 0.198977
C	-1.1544117267	 2.2810851936	 0.0312289624	-0.197225
N	-0.6921021477	 3.583839106	 0.0322980277	-0.245802
C	 0.5966962149	 3.4597300549	 0.0140155376	 0.071862
O	 1.0472584568	 2.1897793215	 0.0006427972	-0.169311
H	 0.1830807807	-2.2386553311	-0.0126313598	 0.202848
H	-2.2056419727	 2.0435247904	 0.0442331588	 0.138277
H	 1.3435726857	 4.2382315702	 0.0082309001	 0.156842
168.809	170.754	449.4645	522.6514	560.244	594.357	658.0296	690.2341	693.0073	847.5316	875.5589	939.4156	977.8217	1131.6491	1150.9093	1220.7265	1260.9395	1339.545	1518.977	1600.1027	2236.8434	3274.302	3278.4388	3501.9277
C#CC1=CN=CO1	C#Cc1cnco1	
InChI=1S/C5H3NO/c1-2-5-3-6-4-7-5/h1,3-4H	InChI=1S/C5H3NO/c1-2-5-3-6-4-7-5/h1,3-4H
