15
gdb 4595	5.5213	1.51827	1.19966	4.2971	72.37	-0.2101	-0.0355	0.1746	965.069	0.12106	-362.742317	-362.735364	-362.734419	-362.773408	26.359	
C	-0.0191969444	 1.5561506871	 0.0150953369	-0.49443
C	 0.0010800281	 0.0514940564	-0.0086433482	 0.230865
C	-0.0407580969	-0.6584333162	-1.1697978133	-0.038055
N	-0.0209827121	-2.0219683417	-1.169067342	-0.359607
C	 0.0422446889	-2.8427806652	-0.0276883394	 0.420672
O	 0.0543738494	-4.0580865496	-0.1416490288	-0.40213
C	 0.0859849692	-2.0733230907	 1.2027386791	-0.241783
C	 0.0661986643	-0.7132024657	 1.2001177999	-0.111435
H	 0.8803055332	 1.9637867718	 0.4912778547	 0.132561
H	-0.0742077939	 1.9684759008	-0.9962361888	 0.123274
H	-0.8795602902	 1.9385720511	 0.5767752455	 0.132512
H	-0.0913751118	-0.187112825	-2.144930882	 0.126694
H	-0.052891491	-2.5301402366	-2.041956893	 0.259795
H	 0.1351845013	-2.6465671924	 2.1204270672	 0.115803
H	 0.1006999157	-0.1779450641	 2.1460130823	 0.105264
118.918	140.5523	290.1292	301.5617	395.7102	456.0998	479.316	498.0164	640.4647	699.3004	757.4848	764.4234	826.1164	854.0619	886.1974	981.5579	1003.2791	1024.9941	1069.9742	1134.5457	1212.9255	1225.9821	1254.2896	1367.4019	1421.2019	1452.2007	1460.6218	1480.9033	1502.0045	1581.5962	1688.4841	1784.1233	3024.9192	3074.7004	3109.7519	3158.6154	3194.4806	3214.0574	3608.0548
CC1=CNC(=O)C=C1	Cc1c[nH]c(=O)cc1	
InChI=1S/C6H7NO/c1-5-2-3-6(8)7-4-5/h2-4H,1H3,(H,7,8)	InChI=1S/C6H7NO/c1-5-2-3-6(8)7-4-5/h2-4H,1H3,(H,7,8)
