15
gdb 2317	6.8214	1.45041	1.31652	1.77	62.7	-0.2529	0.0614	0.3143	903.2453	0.123298	-308.462196	-308.454596	-308.453652	-308.494034	27.85	
O	-0.1507853219	 1.4775632328	 0.2036466642	-0.415354
C	-0.0347499619	 0.0856576533	 0.1140415889	 0.081249
C	-0.6708019724	-0.7843596736	 1.1704601041	-0.315775
C	-1.2874309511	-0.6766214989	-0.208712885	-0.005578
C	-2.6003353193	 0.0698320613	-0.3994101265	-0.37145
C	-3.7666664715	-0.7435651847	-0.0698334288	 0.308796
C	-4.7166203923	-1.4290463923	 0.1997224029	-0.453807
H	 0.3937980852	 1.7749748166	 0.9395393666	 0.290382
H	 0.892603311	-0.2618505179	-0.341275723	 0.088592
H	-0.1815693706	-1.7073564253	 1.4613819801	 0.112758
H	-1.1877373895	-0.2702667553	 1.9746765815	 0.117917
H	-1.1684255994	-1.5384829903	-0.8580872434	 0.097586
H	-2.5877524805	 0.9780146741	 0.2117893615	 0.141477
H	-2.6770892969	 0.4117773875	-1.4398501455	 0.131709
H	-5.5617640789	-2.0252328173	 0.4386890623	 0.191498
57.1168	124.7814	220.7195	296.1913	305.8919	343.5039	434.0176	501.2911	565.6832	613.567	633.3479	771.6563	830.5328	885.8324	897.3164	947.5493	1004.2917	1037.3384	1061.8703	1126.7248	1140.188	1176.5154	1236.9596	1245.1824	1302.4593	1317.8868	1392.7925	1424.425	1471.4786	1490.0367	2238.3964	3025.7674	3077.5048	3097.1803	3130.1278	3156.9791	3218.9984	3508.0925	3811.4197
OC1CC1CC#C	O[C@H]1C[C@H]1CC#C	
InChI=1S/C6H8O/c1-2-3-5-4-6(5)7/h1,5-7H,3-4H2	InChI=1S/C6H8O/c1-2-3-5-4-6(5)7/h1,5-7H,3-4H2/t5-,6+/m1/s1
