14
gdb 2354	5.9322	1.79152	1.71655	4.5659	53.78	-0.2458	0.0172	0.263	753.0696	0.113726	-361.720579	-361.713254	-361.712309	-361.753364	24.832	
N	-0.0096163724	 1.3145080788	 0.3917996954	-0.531878
C	 0.0125528869	 0.1406610458	-0.3017162318	 0.400224
O	 0.9838912772	-0.2281497978	-0.9350100549	-0.363397
C	-1.2603356482	-0.6835155151	-0.2362940664	-0.14188
C	-1.8085617569	-1.1792772939	-1.5987198933	-0.068655
O	-1.7576656619	-2.5548350021	-1.1791137365	-0.270293
C	-1.0665982338	-2.1968034364	 0.0321590661	-0.069296
H	 0.8096762527	 1.8997564784	 0.3689713152	 0.263275
H	-0.8139793017	 1.6248059143	 0.9066174042	 0.26011
H	-2.0257000727	-0.2275206439	 0.3952694021	 0.071028
H	-2.8253196182	-0.8619977123	-1.8556812024	 0.101751
H	-1.1294033795	-0.9794145362	-2.435464688	 0.123053
H	-0.0151395551	-2.5047238787	 0.0117332735	 0.124342
H	-1.5603955563	-2.597912521	 0.9241413068	 0.101617
23.8215	100.2016	143.2281	233.7279	274.0577	394.9145	586.3168	610.9623	701.1244	761.0769	851.731	884.0638	961.2395	1017.5523	1048.2617	1048.7459	1087.1257	1131.4662	1171.4314	1188.0054	1243.9408	1273.394	1315.6646	1379.1262	1418.4848	1498.8457	1525.2435	1617.4579	1794.0603	3021.0108	3030.7256	3068.9959	3077.4544	3090.5351	3603.3588	3742.6339
NC(=O)C1COC1	NC(=O)C1COC1	
InChI=1S/C4H7NO2/c5-4(6)3-1-7-2-3/h3H,1-2H2,(H2,5,6)	InChI=1S/C4H7NO2/c5-4(6)3-1-7-2-3/h3H,1-2H2,(H2,5,6)
