11
gdb 3829	5.85927	2.76464	1.87836	0.661	57.12	-0.2434	-0.058	0.1854	615.8909	0.08019	-339.406341	-339.401034	-339.40009	-339.435435	19.834	
N	-0.0673363596	 1.3268833466	 0.1515665802	-0.520946
C	-0.0232523189	 0.0528038071	-0.006437537	 0.274789
C	-1.2092388493	-0.7738966666	-0.093530434	-0.189352
C	-1.0671458192	-2.0965678971	-0.2587851713	 0.103018
O	 0.1166733192	-2.7443562577	-0.3538783165	-0.236626
N	 1.3033428106	-2.0199684785	-0.2794504597	-0.05215
C	 1.2056934749	-0.7493594279	-0.1211989627	-0.015557
H	 0.8769022241	 1.7184120202	 0.1879429384	 0.214645
H	-2.1914751233	-0.3252843968	-0.0256113313	 0.131741
H	-1.8832975682	-2.8054622019	-0.3360151	 0.151254
H	 2.1706487798	-0.2468340876	-0.071348976	 0.139184
138.8991	408.7676	417.9807	423.7501	514.6181	656.7267	727.8471	810.3573	826.7913	864.865	880.9738	960.6564	972.3217	1007.3523	1035.2245	1156.6237	1239.7562	1318.3087	1367.6815	1444.3492	1630.5697	1651.2966	1709.9189	3152.6456	3209.889	3232.5222	3438.7151
N=C1C=CON=C1	[NH]C1=C[CH]ON=C1	
InChI=1S/C4H4N2O/c5-4-1-2-7-6-3-4/h1-3,5H	InChI=1S/C4H4N2O/c5-4-1-2-7-6-3-4/h1-3,5H
