14
gdb 1415	4.10392	1.84506	1.34009	3.2872	61.8	-0.2661	0.0166	0.2826	877.7344	0.110882	-324.53683	-324.528812	-324.527868	-324.569522	27.634	
C	-0.1867937718	 1.8971499841	-0.0344722651	-0.39338
C	 0.2335880406	 0.4286327434	-0.034213914	-0.051026
O	 1.1459239569	 0.2685659854	 1.0662424106	-0.183377
C	 1.8332377918	-0.893285782	 1.1148788664	 0.132497
N	 2.65146316	-1.0953728908	 2.0530231811	-0.437826
C	-0.910784656	-0.4785772637	 0.0801111249	 0.350757
C	-1.8505530591	-1.2216096812	 0.1711930454	-0.478587
H	 0.6981382247	 2.5308329166	-0.128391337	 0.134912
H	-0.8624060741	 2.0929592525	-0.8702769698	 0.13219
H	-0.6992199079	 2.1393259882	 0.8990665001	 0.146646
H	 0.7686530876	 0.2060960114	-0.9688789732	 0.113334
H	 1.6004567833	-1.5794292555	 0.2902215308	 0.09499
H	 3.0901040021	-2.0069541807	 1.9396350857	 0.229856
H	-2.6803779079	-1.8796665978	 0.255120734	 0.209015
69.7829	80.5344	167.1238	217.9805	227.2684	265.4581	406.8524	501.691	554.1435	636.4518	650.5014	682.6275	818.5686	834.2325	925.5214	1038.3881	1041.4277	1097.6054	1124.4577	1148.2025	1291.4628	1343.4428	1356.4833	1406.9754	1428.1072	1482.5	1494.871	1748.0477	2236.9664	2998.4453	3036.3389	3057.4152	3139.7033	3143.4452	3501.3677	3516.9738
CC(OC=N)C#C	C[C@@H](O[CH][NH])C#C	
InChI=1S/C5H7NO/c1-3-5(2)7-4-6/h1,4-6H,2H3	InChI=1S/C5H7NO/c1-3-5(2)7-4-6/h1,4-6H,2H3/t5-/m1/s1
