12
gdb 664	7.05665	4.31839	3.33279	1.2594	45.53	-0.2484	0.0584	0.3068	432.6079	0.097397	-306.313133	-306.30834	-306.307396	-306.341231	17.525	
C	 0.1051754389	 1.4868925402	 0.2017390943	-0.090418
O	 1.474908919	 1.4917517335	-0.2835831337	-0.291377
C	 1.4097078539	 0.0986602851	-0.6312976567	 0.070624
C	 1.8016756011	-0.8368704064	 0.5226373663	-0.090417
O	 0.4403032798	-0.8324524188	 1.0309433865	-0.291377
C	-0.0189643336	-0.0213642692	-0.063163325	 0.070624
H	 0.0238290844	 1.7826688106	 1.2529413664	 0.116513
H	-0.5357416901	 2.1240995671	-0.4209029765	 0.104593
H	 1.7548773369	-0.1101424587	-1.6451371995	 0.090064
H	 2.1063986302	-1.8471549036	 0.221041744	 0.104593
H	 2.5238907822	-0.4214713655	 1.2332542508	 0.116513
H	-0.9103970427	-0.4187502542	-0.5510600968	 0.090064
156.6253	372.1702	401.5191	711.5265	795.7644	806.5769	906.8212	933.6016	963.1033	991.9021	1014.2836	1056.9328	1076.9533	1083.1727	1162.6267	1163.9862	1204.1744	1226.4919	1289.789	1317.3244	1346.8288	1366.4399	1500.5437	1502.114	3017.1048	3018.6479	3080.8896	3082.6225	3094.5764	3107.2124
C1OC2COC12	C1O[C@H]2CO[C@@H]12	
InChI=1S/C4H6O2/c1-3-4(5-1)2-6-3/h3-4H,1-2H2	InChI=1S/C4H6O2/c1-3-4(5-1)2-6-3/h3-4H,1-2H2/t3-,4-/m0/s1
