12
gdb 4447	3.60802	1.95897	1.28092	5.226	53.51	-0.2102	0.038	0.2482	864.9687	0.084719	-451.838037	-451.830983	-451.830039	-451.869106	26.194	
N	 0.2092213234	 1.4069937716	 0.0993413824	-0.593951
C	 0.0000494775	 0.0478494352	 0.0148592292	 0.339226
C	-1.0969747515	-0.7142420069	-0.0008194683	 0.169716
N	-2.4389186707	-0.3857429669	-0.0188393557	-0.603048
O	-0.6589214849	-2.0706056562	 0.0424145834	-0.241096
C	 0.6898754113	-2.0645176934	 0.0469521778	 0.496132
O	 1.4139259766	-3.0083150206	 0.0514822135	-0.376351
O	 1.1193294104	-0.7507431303	 0.0424924628	-0.231804
H	 0.9491721072	 1.7360273667	-0.509714318	 0.264835
H	-0.6483120694	 1.9231951571	-0.0500751134	 0.26792
H	-2.933647135	-0.6454599445	 0.8291672262	 0.254596
H	-2.937278385	-0.7697389718	-0.8155023099	 0.253825
163.0031	215.5888	246.182	291.2176	303.0866	361.099	391.9498	609.5262	627.9335	648.5146	668.5958	745.6165	771.5264	781.291	836.7931	955.2087	982.3419	1125.4808	1194.1263	1220.1118	1349.2108	1417.4723	1628.9003	1663.6579	1835.7049	1942.8336	3490.3228	3531.6656	3553.75	3634.5126
NC1=C(N)OC(=O)O1	Nc1c(N)oc(=O)o1	
InChI=1S/C3H4N2O3/c4-1-2(5)8-3(6)7-1/h4-5H2	InChI=1S/C3H4N2O3/c4-1-2(5)8-3(6)7-1/h4-5H2
