13
gdb 3374	4.70836	2.79817	2.62896	2.0945	48.74	-0.2358	0.0721	0.3079	572.5891	0.102463	-381.546975	-381.541197	-381.540253	-381.576442	21.706	
O	 0.0783295976	 1.3908354975	 0.0386708807	-0.421039
C	 0.0234561437	 0.0100195253	 0.0368578055	 0.100232
C	-0.4372919219	-0.7817895046	 1.2559740805	 0.001414
O	-1.0822135938	-0.0334673059	 2.2636698388	-0.243106
C	-2.4169825902	 0.1110300461	 1.8285235534	 0.01598
O	-2.373561496	 0.1796320835	 0.4075251993	-0.268277
C	-1.3184407976	-0.6904154828	 0.0336435502	-0.032124
H	-0.8324973645	 1.6991457883	 0.1394985604	 0.295286
H	 0.8214839031	-0.43788736	-0.5491847769	 0.110057
H	 0.0624255547	-1.6848521876	 1.5901085202	 0.1075
H	-3.0286461814	-0.7502941978	 2.1443567526	 0.099663
H	-2.8285763277	 1.0455828471	 2.2181686237	 0.127064
H	-1.5954420962	-1.5064435991	-0.6251134584	 0.10735
166.0624	205.1035	297.5626	377.4758	570.9097	680.4845	727.1064	749.1524	753.8293	781.2458	934.8605	955.1293	1039.5463	1054.3223	1082.2688	1088.2962	1100.3711	1123.418	1182.2461	1201.5318	1227.59	1286.2198	1329.0127	1358.0045	1419.6831	1445.7473	1535.9697	2968.3221	3103.0757	3149.4273	3159.0903	3169.738	3753.3792
OC1C2OCOC12	O[C@H]1[C@H]2OCO[C@@H]12	
InChI=1S/C4H6O3/c5-2-3-4(2)7-1-6-3/h2-5H,1H2	InChI=1S/C4H6O3/c5-2-3-4(2)7-1-6-3/h2-5H,1H2/t2-,3+,4-
