19
gdb 4066	6.87583	0.94057	0.86464	1.0773	76.33	-0.2392	0.0103	0.2496	1342.7661	0.16393	-365.018451	-365.009625	-365.008681	-365.052342	32.32	
C	 0.1386878597	 1.4203573767	 0.2847053005	-0.380308
C	-0.0236769421	-0.0695422244	-0.0315291774	-0.191484
C	 0.624303606	-0.4789706901	-1.3478894149	 0.052474
C	 2.1931659035	-0.4791026857	-1.4149701389	-0.33013
C	 2.1075239022	-1.8864771505	-1.9649877108	 0.422957
C	 0.6194122804	-2.001618411	-1.7102395063	-0.347248
N	 2.9966260371	-2.6007015276	-2.5142385672	-0.233541
O	 2.4603934264	-3.8372375725	-2.9296968952	-0.396285
H	 1.1957566842	 1.7003471722	 0.3502067997	 0.119528
H	-0.319672165	 2.0412275516	-0.493074511	 0.115345
H	-0.3323331229	 1.6785876823	 1.2380421628	 0.114282
H	 0.4080591375	-0.6693470951	 0.7816009777	 0.093831
H	-1.0910107964	-0.325176556	-0.0643642905	 0.098209
H	 0.2063810295	 0.1141783584	-2.1678461386	 0.076051
H	 2.6718163535	 0.2656328049	-2.0555831659	 0.119973
H	 2.6615921253	-0.4340287565	-0.4245256787	 0.116785
H	 0.378701715	-2.6524223687	-0.8616118001	 0.120213
H	 0.0146746232	-2.318413593	-2.5638539194	 0.124582
H	 3.2240913728	-4.2600612649	-3.3363141758	 0.304768
37.0875	101.6	168.3971	214.5354	237.5369	263.0977	342.962	392.3372	414.9801	467.2065	530.4596	681.0535	763.9149	787.1907	794.161	914.0737	930.0201	957.6154	975.9453	994.6822	1027.5115	1075.8313	1121.1249	1136.8481	1185.8524	1216.0969	1218.6275	1256.3346	1268.5089	1300.5609	1340.3956	1388.255	1402.9294	1412.5211	1450.6664	1468.8657	1487.0028	1499.259	1506.6076	1784.7274	3009.4764	3030.6356	3037.5165	3037.9181	3044.1302	3056.2513	3096.8543	3100.7497	3102.2075	3104.0029	3819.9488
CCC1CC(C1)=NO	CC[C@H]1CC(=NO)C1	
InChI=1S/C6H11NO/c1-2-5-3-6(4-5)7-8/h5,8H,2-4H2,1H3	InChI=1S/C6H11NO/c1-2-5-3-6(4-5)7-8/h5,8H,2-4H2,1H3/t5-
