14
gdb 3735	6.89105	2.07477	1.81204	0.6337	59.12	-0.2569	0.0007	0.2576	717.6135	0.115917	-320.768781	-320.762423	-320.761479	-320.799831	22.306	
C	-0.02674152	 1.5386222896	 0.0101572027	-0.378811
C	-0.0249566608	 0.0099202808	 0.0026826165	-0.127524
N	-1.3712924268	-0.5444441114	 0.0125332056	 0.156475
N	-2.0301541859	-0.7749827795	 1.1423329661	-0.229442
C	-3.2283827482	-1.1929083383	 0.7266289315	-0.059862
C	-3.2401503156	-1.1892736118	-0.6736302706	-0.059912
N	-2.0490372562	-0.7692003451	-1.1072318878	-0.229375
H	 1.0015016606	 1.9121546679	 0.0023817688	 0.123684
H	-0.5434655703	 1.9269431237	-0.8714910217	 0.140185
H	-0.5268783789	 1.9182594203	 0.9050488761	 0.140276
H	 0.4652736044	-0.3788537085	-0.8921444309	 0.138806
H	 0.4821907398	-0.3874296778	 0.8842403239	 0.138738
H	-3.9943878098	-1.4736433266	 1.4315137078	 0.123379
H	-4.0178985723	-1.4663722133	-1.3669989278	 0.123383
41.7092	137.4396	222.2617	380.7959	395.7075	681.3725	684.9868	706.8854	795.8645	845.8193	894.0919	971.1853	981.6648	1004.6714	1087.2969	1096.6324	1108.688	1208.7936	1269.5361	1295.3152	1385.7474	1388.1214	1398.2399	1410.818	1446.9277	1475.1741	1489.7293	1504.2283	1505.8223	3047.6578	3082.2082	3121.8083	3123.6791	3145.7534	3263.6816	3281.3316
CCN1N=CC=N1	CCn1nccn1	
InChI=1S/C4H7N3/c1-2-7-5-3-4-6-7/h3-4H,2H2,1H3	InChI=1S/C4H7N3/c1-2-7-5-3-4-6-7/h3-4H,2H2,1H3
