8
gdb 37	48.62351	4.67298	4.38187	3.92	29.47	-0.2814	0.0074	0.2888	293.917	0.061327	-229.013797	-229.009003	-229.008059	-229.041086	13.885	
C	 0.1065378106	 1.4351204878	 0.0333609957	-0.243679
O	 0.4268656414	 0.0471692892	 0.093099449	-0.163311
C	 0.5071486248	-0.6365266459	-1.0631829744	 0.179862
O	 0.7692701427	-1.7995501732	-1.1101047475	-0.270025
H	 0.9234925079	 2.0038513859	 0.4846572797	 0.146
H	-0.0375781504	 1.7692718281	-1.0005742542	 0.129059
H	-0.8126956863	 1.6080191552	 0.5987328735	 0.146008
H	 0.3045845993	-0.002319017	-1.9496555317	 0.076086
72.4269	195.5832	381.2587	644.6708	1034.5437	1044.7968	1124.5663	1180.6375	1270.5148	1419.0054	1482.1678	1489.0178	1511.0708	1871.6879	2936.388	3028.8833	3107.542	3124.496
COC=O	COC=O	
InChI=1S/C2H4O2/c1-4-2-3/h2H,1H3	InChI=1S/C2H4O2/c1-4-2-3/h2H,1H3
