19
gdb 1352	4.03703	2.21795	2.1344	1.4972	66.33	-0.2434	0.075	0.3184	751.5983	0.17205	-310.932716	-310.925095	-310.924151	-310.964626	28.45	
C	 0.1239680242	 1.4765360035	-0.021245967	-0.423204
C	-0.0529472742	-0.0511360213	-0.0005087859	 0.308672
C	-1.5380872911	-0.4215028635	 0.0191868359	-0.444721
C	 0.7189077821	-0.7062922446	-1.1794081073	-0.270783
C	 2.1106422948	-1.0434621291	-0.5866480366	-0.072829
O	 2.0817170777	-0.6573138084	 0.7864661755	-0.252919
C	 0.7240013138	-0.6469899119	 1.1902181462	-0.099042
H	 1.1829951043	 1.7468602255	 0.026384873	 0.126409
H	-0.2987470585	 1.9086982732	-0.9347040918	 0.10795
H	-0.3808124109	 1.9418335087	 0.8327780826	 0.108672
H	-2.0519666318	-0.0398632246	-0.8697151763	 0.1151
H	-1.6791764663	-1.5074984969	 0.0464345274	 0.110339
H	-2.0405596185	 0.0045364068	 0.8952187725	 0.112914
H	 0.2106450598	-1.616991253	-1.5100848381	 0.097645
H	 0.7852655404	-0.0390406111	-2.042880461	 0.101776
H	 2.325467928	-2.1188628889	-0.6739399592	 0.090841
H	 2.9301458086	-0.4987712323	-1.0653491557	 0.105608
H	 0.6507017518	-0.0520567354	 2.1056983949	 0.10241
H	 0.3669960157	-1.6686215066	 1.4103524509	 0.075162
36.014	202.1763	224.4276	255.33	301.3677	337.5606	390.3219	413.3144	580.4888	694.1361	779.9435	823.9154	899.259	939.4221	948.9584	958.1224	978.0304	993.2748	1031.5853	1062.5121	1108.1803	1191.3951	1217.5013	1229.2317	1253.9729	1258.0851	1309.9969	1311.5567	1362.2802	1392.6086	1403.4092	1425.5174	1485.2588	1487.1781	1498.8941	1505.065	1508.6628	1512.8339	1530.7094	2947.363	2990.0427	3023.1351	3028.6728	3054.7531	3067.9891	3079.4709	3088.0974	3093.647	3094.2726	3101.4916	3109.8881
CC1(C)CCOC1	CC1(C)CCOC1	
InChI=1S/C6H12O/c1-6(2)3-4-7-5-6/h3-5H2,1-2H3	InChI=1S/C6H12O/c1-6(2)3-4-7-5-6/h3-5H2,1-2H3
