14
gdb 2276	7.54469	1.5135	1.36	3.0877	57.21	-0.262	0.0244	0.2864	848.8315	0.113988	-324.566568	-324.559673	-324.558729	-324.59848	23.473	
N	-0.0939325259	-1.0961544716	-0.3164370732	-0.300396
C	-0.0674562301	 0.0423136294	-0.1204619501	 0.25881
C	-0.0000171633	 1.4825786318	 0.1228417775	-0.358498
C	 1.4418698343	 2.0063325199	 0.123258058	-0.025877
C	 2.1325787568	 2.0764820023	-1.2570649255	-0.076149
O	 2.0753184963	 3.5185158112	-1.2580438217	-0.26663
C	 1.5688904002	 3.5457626864	 0.089512549	-0.092277
H	-0.5842750923	 1.995898154	-0.6503402704	 0.160427
H	-0.4831479745	 1.6988660377	 1.0829420174	 0.155547
H	 2.0201250953	 1.5082292524	 0.9030788533	 0.103882
H	 3.1644657236	 1.7058393474	-1.2761794054	 0.112383
H	 1.5815400521	 1.6379468813	-2.0977143883	 0.115851
H	 0.631154646	 4.1109461753	 0.1690331133	 0.105009
H	 2.2963433717	 3.9639510624	 0.7966271658	 0.107918
54.2543	81.6318	147.3669	328.7158	360.5617	398.9626	532.1643	790.1407	854.9986	881.9756	888.6873	937.992	980.8472	1041.1356	1057.033	1095.5439	1138.8711	1160.7736	1167.0605	1235.7914	1265.3977	1311.1129	1322.5053	1370.7272	1393.3391	1466.1914	1512.085	1537.0389	2362.7217	3006.8401	3022.1225	3037.8065	3050.4345	3063.5847	3074.9186	3103.636
N#CCC1COC1	N#CCC1COC1	
InChI=1S/C5H7NO/c6-2-1-5-3-7-4-5/h5H,1,3-4H2	InChI=1S/C5H7NO/c6-2-1-5-3-7-4-5/h5H,1,3-4H2
