13
gdb 1419	6.20149	1.37611	1.17249	3.1219	56.73	-0.2501	-0.0291	0.221	939.2042	0.098184	-344.417597	-344.4096	-344.408656	-344.450338	27.355	
O	-0.3002100278	 1.3641631139	 0.1600808436	-0.415117
C	 0.0028561662	-0.0210742132	 0.0179503826	-0.066432
C	 0.7988419352	-0.2930518397	-1.2801052801	-0.282858
C	 0.0534341477	 0.1636327467	-2.5194325604	 0.147799
O	 0.002697215	-0.4689572179	-3.5430604041	-0.239152
C	 0.7105713993	-0.5499394002	 1.1845517773	 0.289993
C	 1.3314427585	-0.9488294158	 2.1333207272	-0.426637
H	 0.4899421524	 1.803091408	 0.4949698922	 0.289891
H	-0.9742444948	-0.5140957363	-0.0586627376	 0.133255
H	 1.7425095678	 0.2677193353	-1.2227303408	 0.126118
H	 1.0464502798	-1.3529589176	-1.3806914985	 0.136319
H	-0.4486155913	 1.1488851648	-2.419434918	 0.099565
H	 1.8617262019	-1.311067658	 2.9796943867	 0.207255
62.2268	89.5596	140.0965	213.9736	266.8794	304.2439	415.3299	444.1039	553.2601	572.9162	639.607	682.9052	803.9866	858.5768	974.2846	1034.3823	1084.4324	1102.2048	1197.9914	1264.5598	1295.0917	1350.3199	1413.7252	1422.1475	1449.0634	1830.91	2234.894	2918.5393	3020.4211	3040.9587	3110.3408	3500.8718	3805.0831
OC(CC=O)C#C	O[C@@H](CC=O)C#C	
InChI=1S/C5H6O2/c1-2-5(7)3-4-6/h1,4-5,7H,3H2	InChI=1S/C5H6O2/c1-2-5(7)3-4-6/h1,4-5,7H,3H2/t5-/m1/s1
