16
gdb 4844	4.65771	1.47721	1.15984	2.6091	69.5	-0.1905	0.0259	0.2164	1032.2745	0.131022	-379.95504	-379.946935	-379.945991	-379.988002	28.607	
C	-0.0415110913	 1.4490720075	 0.162304497	-0.333107
N	 0.4048333612	 0.081857548	-0.1057517236	-0.391828
C	 0.7145217192	-0.7288665086	 0.9679607984	 0.376029
C	 0.5198219505	-2.0386995185	 1.2758912382	-0.223317
N	 1.179594807	-2.3212472548	 2.4714180259	-0.29117
C	 1.7134469133	-1.2050894388	 2.8354872473	 0.379235
C	 2.5105050084	-0.8940030783	 4.0486271846	-0.487822
O	 1.4756300643	-0.1745106053	 1.9560719396	-0.206447
H	 0.7326703166	 1.9761699346	 0.7228534062	 0.152241
H	-0.1818821793	 1.9636589405	-0.7909205838	 0.127821
H	-0.97933534	 1.5002191367	 0.7356698383	 0.116173
H	-0.1863228621	-0.4037662996	-0.7657853188	 0.245296
H	-0.0332859444	-2.788207573	 0.7339641314	 0.104578
H	 3.5058052652	-0.5172618145	 3.7889462376	 0.139722
H	 2.0210479517	-0.1312374527	 4.6645403784	 0.137944
H	 2.6192642496	-1.8057291633	 4.6368497432	 0.154654
62.5763	122.8179	147.6352	178.3866	221.7989	312.3119	372.6879	466.3445	597.2649	666.8453	685.1316	703.2464	755.9598	774.5781	958.1555	980.8034	1026.1558	1064.0856	1069.1008	1135.8081	1149.4291	1159.6028	1248.8869	1296.7676	1369.5592	1412.5802	1451.5074	1474.6637	1478.3503	1487.9517	1491.6742	1515.7636	1644.4101	1663.8442	2991.2608	3036.1164	3086.5426	3097.7214	3140.2745	3153.269	3266.0022	3594.327
CNC1=CN=C(C)O1	CNc1cnc(C)o1	
InChI=1S/C5H8N2O/c1-4-7-3-5(6-2)8-4/h3,6H,1-2H3	InChI=1S/C5H8N2O/c1-4-7-3-5(6-2)8-4/h3,6H,1-2H3
