14
gdb 1446	7.94852	1.43693	1.23542	5.5391	56.25	-0.2499	-0.0281	0.2218	931.5737	0.111916	-361.769162	-361.761227	-361.760283	-361.8022	26.378	
C	-0.1034726832	 1.5367126144	 0.1778638853	-0.372444
C	 0.0284200602	 0.0315014646	-0.0374344071	-0.31468
C	 0.7657053121	-0.3090092957	-1.3304350782	 0.436192
O	 1.1962015227	 0.5123523626	-2.0961601636	-0.294718
N	 0.8897732847	-1.6969223208	-1.5338838536	-0.350459
C	 1.4976935006	-2.3602500464	-2.5964023355	 0.16743
O	 2.0335211824	-1.8585205712	-3.5441448422	-0.251037
H	 0.8800000199	 2.010020721	 0.2238622109	 0.139517
H	-0.6498978789	 2.0004565163	-0.6465861003	 0.13952
H	-0.6352277046	 1.7444278768	 1.1102135095	 0.112878
H	 0.5639356496	-0.4392469882	 0.7982725966	 0.125553
H	-0.9590569927	-0.4488740672	-0.0675172588	 0.125529
H	 0.4898093772	-2.2940726121	-0.8243730025	 0.253969
H	 1.4205392602	-3.4579364741	-2.4493179706	 0.082751
51.6378	65.476	162.5717	186.6594	224.3026	276.4588	374.0801	552.7193	560.9443	633.1988	741.2585	818.5481	927.0011	995.3507	1028.0956	1065.4381	1098.4046	1128.1092	1165.6573	1285.947	1367.3548	1417.2988	1447.0171	1462.6199	1491.5734	1497.775	1502.5831	1814.9362	1876.4071	2914.0378	3017.3609	3048.5475	3056.0744	3128.5238	3135.2824	3606.0719
CCC(=O)NC=O	CCC(=O)NC=O	
InChI=1S/C4H7NO2/c1-2-4(7)5-3-6/h3H,2H2,1H3,(H,5,6,7)	InChI=1S/C4H7NO2/c1-2-4(7)5-3-6/h3H,2H2,1H3,(H,5,6,7)
