14
gdb 1968	6.9034	1.67937	1.47296	1.2437	55.23	-0.2659	0.021	0.2869	807.6631	0.113694	-361.707841	-361.701076	-361.700132	-361.738859	24.5	
O	-0.023854608	 1.5141794259	 0.0328951325	-0.416294
C	 0.0148232865	 0.1541448431	-0.3443769768	-0.067894
C	-1.2810872865	-0.5502978209	 0.0012335684	 0.11201
C	-1.2895360299	-2.0914590045	 0.0355130091	-0.385577
C	-1.4955614422	-1.9040417622	 1.5245121835	 0.444745
N	-1.632433746	-2.6732896319	 2.5025704603	-0.533412
O	-1.493611754	-0.5208861872	 1.4605970599	-0.278711
H	-0.2156840706	 1.533919919	 0.977938126	 0.295456
H	 0.1710903518	 0.1263484903	-1.4285849975	 0.118773
H	 0.8542273198	-0.37963309	 0.1305835352	 0.093978
H	-2.1312520401	-0.0770233197	-0.4970992066	 0.10459
H	-2.115968097	-2.580446521	-0.4813814433	 0.143207
H	-0.3500009319	-2.5771717971	-0.2370590602	 0.139107
H	-1.7574419319	-2.1534723538	 3.3728527596	 0.230021
83.3231	124.7545	221.7848	372.6342	424.1332	430.9454	495.9806	521.6591	713.415	823.6806	866.7429	882.7978	939.7896	992.1616	1017.4176	1045.6973	1079.7547	1097.9541	1159.6654	1210.2833	1234.0191	1246.4242	1311.7294	1352.5893	1400.1719	1434.0253	1464.2432	1493.1611	1829.515	2976.0494	3069.6011	3084.943	3087.819	3142.567	3478.6026	3796.0615
OCC1CC(=N)O1	OC[C@H]1C[C]([NH])O1	
InChI=1S/C4H7NO2/c5-4-1-3(2-6)7-4/h3,5-6H,1-2H2	InChI=1S/C4H7NO2/c5-4-1-3(2-6)7-4/h3,5-6H,1-2H2/t3-/m1/s1
