15
gdb 3716	6.85545	1.81699	1.59359	2.2314	62.33	-0.2324	0.0266	0.259	794.2946	0.127511	-304.725676	-304.719005	-304.718061	-304.756886	24.109	
C	-0.1462715437	 1.563418442	 0.000035678	-0.361672
C	 0.0563697137	 0.0385892512	-0.0326878873	-0.304981
C	 0.7624113536	-0.4940410292	 1.1803487554	 0.218946
C	 2.0881610546	-0.8628103156	 1.3031695345	-0.130319
N	 2.2694206491	-1.2520896885	 2.5897372818	-0.176369
N	 1.1489273187	-1.1692534482	 3.329475268	-0.225462
C	 0.2365994876	-0.7087882124	 2.4785069547	-0.079291
H	 0.8150402729	 2.0838066187	 0.055353458	 0.117057
H	-0.6713767794	 1.9090985857	-0.896340137	 0.109211
H	-0.7338958996	 1.8625493668	 0.8736639868	 0.12066
H	-0.9206969201	-0.4500312784	-0.1314508559	 0.107241
H	 0.6222602281	-0.2319798698	-0.9314986633	 0.100003
H	 2.8937354745	-0.8797429448	 0.585355423	 0.128022
H	 3.1125140513	-1.5928311825	 3.0187991394	 0.272488
H	-0.7766366015	-0.548298495	 2.819660414	 0.104467
43.3354	158.6836	214.0952	332.5161	399.5358	505.5989	629.2534	677.2844	706.8196	782.8169	793.5067	887.1713	949.8117	958.9802	1019.5122	1060.491	1071.8756	1089.6513	1168.8369	1239.2072	1278.7399	1316.1955	1362.5324	1392.0468	1409.097	1419.5664	1485.5285	1494.0454	1495.932	1507.896	1613.0161	3027.5677	3034.3247	3061.0695	3105.5757	3110.2896	3235.4276	3254.8558	3677.9632
CCC1=CNN=C1	CCc1c[nH]nc1	
InChI=1S/C5H8N2/c1-2-5-3-6-7-4-5/h3-4H,2H2,1H3,(H,6,7)	InChI=1S/C5H8N2/c1-2-5-3-6-7-4-5/h3-4H,2H2,1H3,(H,6,7)
