13
gdb 1648	4.97341	2.02545	1.45255	8.8758	52.77	-0.2307	-0.0336	0.1971	791.2849	0.101417	-377.816463	-377.808824	-377.80788	-377.849019	25.86	
C	 0.1151328311	 1.4852532088	 0.0090408054	-0.349362
N	-0.088563431	 0.0502436461	 0.0029975373	-0.251993
C	-1.2277043568	-0.5905023267	 0.0105895602	 0.30179
N	-2.4360134482	-0.0769730836	 0.0252700392	-0.497761
H	-3.147137136	-0.8094864898	 0.0281617335	 0.296346
H	-2.6676353094	 0.9026383014	 0.032959656	 0.272713
C	-1.139471345	-2.1693967819	 0.0009482898	 0.404498
O	 0.0331932678	-2.565007388	-0.0125929781	-0.464229
O	-2.257381059	-2.696973334	 0.0092315333	-0.459672
H	 1.1852554238	 1.6932935922	-0.0002988996	 0.16418
H	-0.3343525498	 1.9507705303	-0.875713464	 0.148745
H	-0.3168514032	 1.940776974	 0.9076071366	 0.148748
H	 0.6764265456	-0.6315314488	-0.0082365295	 0.285998
40.5472	117.5802	162.6024	182.492	278.8184	390.1029	403.4201	525.5006	552.3162	694.5649	778.4911	796.356	813.9457	833.0027	971.1271	1150.8092	1157.3737	1193.7839	1265.4259	1314.4353	1450.2756	1479.1795	1489.6205	1506.196	1591.8634	1756.62	1840.0697	3026.5775	3083.1588	3149.6734	3404.0668	3446.1276	3670.6591
CNC(=[NH2+])C([O-])=O	CNC(=[NH2])C(=O)[O]	
InChI=1S/C3H6N2O2/c1-5-2(4)3(6)7/h1H3,(H2,4,5)(H,6,7)	InChI=1S/C3H6N2O2/c1-5-2(4)3(6)7/h5H,4H2,1H3
