16
gdb 3516	5.9499	1.97639	1.89426	1.4721	60.2	-0.2335	0.0778	0.3113	728.5229	0.137546	-325.710772	-325.704154	-325.70321	-325.741985	23.988	
C	-0.2409966963	 1.1494448673	-0.3483595618	-0.229029
C	 1.1511839232	 1.0425038097	 0.1731164643	-0.223189
N	 0.2886923872	-0.1298244948	 0.1093453788	-0.072853
C	-0.1989430348	-0.7075418185	 1.3478972396	-0.006138
C	-0.7659665577	 0.1701121445	 2.5019239668	-0.09919
O	-2.1013046743	-0.3144256597	 2.2664732968	-0.273523
C	-1.6419979077	-1.2480413398	 1.2659432465	-0.075773
H	-0.9723712959	 1.6691985599	 0.2661432167	 0.127709
H	-0.4214266157	 1.2181315268	-1.417377125	 0.119434
H	 1.9996318841	 1.0438358276	-0.5055222239	 0.120033
H	 1.3495073048	 1.4861428368	 1.1476016566	 0.113108
H	 0.5463216051	-1.434623077	 1.6796920434	 0.090597
H	-0.3981607994	-0.1049468637	 3.4990200094	 0.098712
H	-0.6951433705	 1.2591536554	 2.3935844889	 0.099498
H	-2.1328813432	-1.0960792256	 0.2979373583	 0.109498
H	-1.7763352188	-2.289829749	 1.5821139445	 0.101104
47.9203	125.9565	231.3195	288.1728	446.8066	477.6768	692.0387	808.0128	839.4644	862.5841	894.8174	915.8694	977.7897	1016.397	1034.6305	1043.8449	1082.8146	1115.3642	1119.3811	1142.3036	1160.7073	1169.2595	1184.7393	1186.995	1258.8236	1305.6227	1336.2342	1358.2015	1394.1831	1492.0411	1504.2752	1523.3426	1536.5274	3008.0637	3021.8167	3048.8588	3066.7027	3081.0181	3096.7199	3107.2396	3177.9126	3193.361
C1CN1C1COC1	C1CN1C1COC1	
InChI=1S/C5H9NO/c1-2-6(1)5-3-7-4-5/h5H,1-4H2	InChI=1S/C5H9NO/c1-2-6(1)5-3-7-4-5/h5H,1-4H2
