13
gdb 4247	3.83894	2.01862	1.32297	5.398	64.22	-0.2308	-0.0334	0.1974	847.7324	0.098908	-394.851816	-394.845354	-394.84441	-394.882445	24.772	
N	-0.0896014876	 1.2957779538	 0.3655872985	-0.56189
C	 0.0179622472	 0.0808792132	-0.0063785071	 0.465496
N	 1.1991530384	-0.6094037889	-0.2930927768	-0.373478
C	 1.2297368547	-1.9230074691	-0.6894432493	 0.044001
C	 0.1105133186	-2.6549139869	-0.8338425301	-0.268495
C	-1.1899053494	-2.0475028266	-0.5640890517	 0.44331
O	-2.2675798581	-2.5991044843	-0.6570556247	-0.376236
N	-1.1091081415	-0.705737568	-0.1667165429	-0.385164
H	 0.8151391365	 1.7543757271	 0.442377258	 0.208941
H	 2.058784177	-0.0959514682	-0.1967342009	 0.264692
H	 2.2206307391	-2.3210066642	-0.875560483	 0.140047
H	 0.1360031861	-3.6880971345	-1.145663598	 0.125888
H	-1.9870783909	-0.2454472534	 0.030552408	 0.272888
131.735	162.6232	373.3483	375.9918	473.6587	515.1182	532.9488	560.6202	661.5382	714.7365	743.4807	753.9433	765.0046	818.7761	954.0969	967.6872	987.3571	1084.8421	1126.901	1229.9172	1255.68	1388.801	1413.5762	1439.1555	1491.3836	1682.7933	1754.7048	1799.1955	3202.801	3255.2501	3516.329	3616.4398	3665.095
N=C1NC=CC(=O)N1	[NH][C]1NC=CC(=O)N1	
InChI=1S/C4H5N3O/c5-4-6-2-1-3(8)7-4/h1-2H,(H3,5,6,7,8)	InChI=1S/C4H5N3O/c5-4-6-2-1-3(8)7-4/h1-2H,(H3,5,6,7,8)
