19
gdb 1565	6.24888	1.09834	0.98985	0.1428	64.09	-0.2612	0.0758	0.337	1170.6891	0.169582	-348.046805	-348.037437	-348.036493	-348.080947	32.45	
C	-0.0631560313	 1.5917635277	-0.0791549523	-0.391098
C	 0.0193585544	 0.060342015	-0.0082976783	 0.031667
C	 0.7230584374	-0.500250399	-1.2460726373	-0.077154
O	-0.0290605527	-0.1402496903	-2.3965265496	-0.424477
C	 0.7206330455	-0.4480920282	 1.2609614493	-0.172751
C	-0.0108248001	-0.1216283688	 2.5577160703	-0.08227
O	 0.6955539169	-0.7523470888	 3.6175055407	-0.421758
H	 0.9349673287	 2.038482707	 0.0115338581	 0.106149
H	-0.486869649	 1.9026596567	-1.0365624928	 0.133824
H	-0.686455491	 2.0046060545	 0.7191592556	 0.108716
H	-1.0038464375	-0.3416435825	-0.0259756644	 0.080256
H	 1.7482422677	-0.096476282	-1.299612563	 0.082009
H	 0.8054368964	-1.595278541	-1.1575169134	 0.083031
H	 0.4547350993	-0.4289393686	-3.1752606602	 0.286171
H	 0.8295831044	-1.5387737352	 1.2137133641	 0.10166
H	 1.7364508646	-0.0357634852	 1.3207493236	 0.100121
H	-0.0576060926	 0.9668865455	 2.7112694541	 0.088215
H	-1.0493569899	-0.4882834435	 2.4981912867	 0.083344
H	 0.2656994388	-0.5181312132	 4.4450333988	 0.284345
68.6398	83.3579	124.1105	159.322	229.8166	242.2574	263.4741	289.7289	343.3168	369.2773	433.7268	553.3647	791.9275	850.1658	924.2735	944.6863	987.942	1020.0368	1062.892	1079.6564	1104.0961	1170.1728	1179.382	1213.0612	1238.8859	1267.1272	1274.4836	1314.3896	1316.2943	1369.764	1380.4258	1407.1434	1456.733	1461.6616	1488.3907	1495.3614	1508.1257	1520.9299	1529.4177	2956.4659	2960.2912	2985.9038	2998.2325	3010.2786	3021.3418	3030.1033	3064.6482	3096.6536	3128.8243	3830.806	3836.672
CC(CO)CCO	C[C@@H](CO)CCO	
InChI=1S/C5H12O2/c1-5(4-7)2-3-6/h5-7H,2-4H2,1H3	InChI=1S/C5H12O2/c1-5(4-7)2-3-6/h5-7H,2-4H2,1H3/t5-/m1/s1
