16
gdb 640	7.19567	2.94512	2.66214	0.1291	60.62	-0.2618	0.0944	0.3562	568.3062	0.143903	-234.472577	-234.4667	-234.465756	-234.50179	22.515	
C	 0.2519933443	 1.5555966075	 0.0080235738	-0.328888
C	 1.3341243986	 0.4970464926	-0.0081405968	-0.31413
C	-0.1150332227	 0.1039304921	 0.0037174523	 0.399152
C	-0.8047013144	-0.7193543748	 1.1016834167	-0.286483
C	-1.2226347495	-1.7431188535	 0.0044198661	-0.198704
C	-0.8258451754	-0.7075085524	-1.0895722366	-0.286483
H	 0.1029321729	 2.1196716261	 0.9237962695	 0.107816
H	 0.0853479717	 2.1295231483	-0.8985508147	 0.107816
H	 1.8969090802	 0.3565895843	-0.92608425	 0.107777
H	 1.9145023314	 0.3467329988	 0.8972005549	 0.107777
H	-0.1735437198	-1.0921225854	 1.9134577055	 0.095085
H	-1.6640501925	-0.2016064321	 1.5407010983	 0.097638
H	-0.5761925338	-2.6240860313	-0.0065802504	 0.10321
H	-2.2624993476	-2.0765385628	 0.0126512792	 0.095694
H	-1.693451341	-0.1851344751	-1.5063033434	 0.097638
H	-0.2105080023	-1.0714133924	-1.9173566138	 0.095085
90.0144	275.746	307.1728	358.4258	538.7926	706.1648	773.2236	781.1893	851.1936	875.9034	903.0075	916.0722	936.4854	943.4531	1008.3751	1050.1989	1073.5658	1077.4147	1142.1484	1186.8459	1196.1825	1224.5461	1240.9802	1255.3492	1273.6005	1289.0515	1379.0553	1463.5934	1477.885	1480.6601	1502.3135	1508.5673	3038.8543	3042.784	3064.6072	3085.9685	3090.0021	3115.7559	3119.8143	3120.1951	3192.8144	3208.1381
C1CC11CCC1	C1CC21CCC2	
InChI=1S/C6H10/c1-2-6(3-1)4-5-6/h1-5H2	InChI=1S/C6H10/c1-2-6(3-1)4-5-6/h1-5H2
