12
gdb 4411	4.08546	2.12209	1.39664	4.0922	61.33	-0.2382	-0.0452	0.193	805.6176	0.086069	-410.889922	-410.883181	-410.882237	-410.921079	24.366	
N	 0.0567345611	 1.3001542677	 0.0072505682	-0.55616
C	-0.0325287022	-0.0360545875	 0.0010319424	 0.539899
N	-1.1881290346	-0.6445110959	 0.0042356554	-0.368308
C	-1.0788626771	-2.0046134645	-0.0032045509	 0.071055
N	 0.0034208966	-2.7217790827	-0.012690418	-0.313024
C	 1.2070156478	-2.0532946009	-0.0161030511	 0.428252
N	 2.3775561919	-2.5232418902	-0.024398251	-0.525321
O	 1.1594348403	-0.6319282079	-0.0085450062	-0.217531
H	 0.9555759129	 1.7492282312	 0.0045264653	 0.286949
H	-0.7915696484	 1.8382773476	 0.0145263688	 0.28836
H	-2.026860783	-2.5397178418	-0.0006409199	 0.127648
H	 2.3100540148	-3.539664905	-0.0287876031	 0.238181
96.0053	160.1872	183.372	346.8433	425.2361	499.9068	560.1487	566.9652	591.1253	747.54	788.435	789.6401	865.7517	932.245	973.6972	1024.4164	1025.9113	1079.0282	1230.9919	1314.7297	1417.3327	1457.4645	1560.3963	1630.7258	1676.4278	1763.925	3155.4345	3521.854	3627.7738	3766.3597
NC1=NC=NC(=N)O1	N[C@H]1N=CN=C([NH])O1	
InChI=1S/C3H4N4O/c4-2-6-1-7-3(5)8-2/h1H,(H3,4,5,6,7)	InChI=1S/C3H5N4O/c4-2-6-1-7-3(5)8-2/h1-2,5H,4H2/t2-/m0/s1
