14
gdb 388	7.46103	2.22365	1.82004	2.7851	50.45	-0.2545	-0.0276	0.2269	676.5067	0.116572	-307.566593	-307.559107	-307.558163	-307.598185	24.765	
C	 0.1062162035	 1.367668956	 0.2190769847	-0.235476
O	-0.085926911	-0.0105248665	-0.0095840221	-0.247561
C	 0.5499948504	-0.5143523311	-1.166393102	 0.047739
C	 2.0652768538	-0.6736675086	-1.0402331823	-0.403451
C	-0.1381866048	-1.8433960224	-1.467358186	 0.148486
O	 0.3277444327	-2.7039414267	-2.166106978	-0.245019
H	 1.1507613882	 1.6133728709	 0.4559292224	 0.113827
H	-0.2023626258	 1.9673796641	-0.6515950812	 0.107054
H	-0.5173952115	 1.6400992993	 1.0738226392	 0.133149
H	 0.323681842	 0.1411268206	-2.0302244662	 0.092794
H	 2.4371163073	-1.2354133856	-1.9004207319	 0.145348
H	 2.5719327391	 0.2938017143	-1.006896961	 0.117776
H	 2.3085237736	-1.2298593512	-0.130268898	 0.131224
H	-1.1361648473	-1.937209223	-0.9863143877	 0.094111
76.6642	94.6314	186.2837	210.957	246.4034	286.9734	426.5274	450.5151	588.7361	822.4452	904.6561	926.0522	1075.4936	1109.4561	1137.1132	1171.8311	1183.0083	1226.2389	1333.3512	1344.0191	1386.9408	1404.1134	1477.6992	1483.1521	1492.8098	1501.0661	1511.429	1840.9874	2904.3721	2918.5474	2980.154	3034.9544	3051.5441	3116.8307	3126.304	3136.7974
COC(C)C=O	CO[C@@H](C)C=O	
InChI=1S/C4H8O2/c1-4(3-5)6-2/h3-4H,1-2H3	InChI=1S/C4H8O2/c1-4(3-5)6-2/h3-4H,1-2H3/t4-/m0/s1
