16
gdb 517	14.22676	1.26311	1.19433	0.	65.82	-0.239	0.0588	0.2979	1025.2475	0.141612	-234.484521	-234.476522	-234.475578	-234.518462	26.786	
C	-0.0423417335	 1.5697357896	 0.0514336985	-0.362099
C	 0.0064021123	 0.0318526345	-0.0063155489	-0.310172
C	 0.6836881866	-0.4748146652	-1.1960315619	 0.058926
C	 1.2479459237	-0.861348623	-2.1880571505	 0.058926
C	 1.9252325738	-1.3680160482	-3.3777729285	-0.310172
C	 1.9739948002	-2.9058989898	-3.4355118827	-0.362099
H	 0.9670702958	 1.990056794	 0.0541088677	 0.12626
H	-0.5722747521	 1.9739168488	-0.8153990842	 0.126261
H	-0.5576051797	 1.9030346651	 0.9574510847	 0.111381
H	 0.5086700599	-0.3504757691	 0.8919780571	 0.12472
H	-1.0160231417	-0.3664591536	 0.0307821427	 0.124723
H	 1.4229551205	-0.9857001479	-4.2760667686	 0.12472
H	 2.9476525699	-0.9696917095	-3.414878696	 0.124723
H	 2.5039369494	-3.3100677844	-2.5686788846	 0.126261
H	 0.9645878212	-3.3262322365	-3.4381792683	 0.12626
H	 2.4892579135	-3.2391978048	-4.3415295265	 0.111381
7.4721	101.6157	157.4416	190.3236	227.8015	285.9427	394.0975	472.2587	521.17	697.5132	785.4639	786.3068	924.9441	988.7573	1076.7988	1082.5848	1103.4407	1105.8246	1166.913	1286.1136	1286.3311	1349.8834	1353.0646	1407.6026	1407.9157	1476.5699	1478.5354	1494.3004	1494.3531	1505.7891	1506.1414	2366.5977	3015.1334	3015.1696	3040.737	3041.3145	3042.0767	3042.5668	3114.9808	3115.0096	3121.8156	3121.9723
CCC#CCC	CCC#CCC	
InChI=1S/C6H10/c1-3-5-6-4-2/h3-4H2,1-2H3	InChI=1S/C6H10/c1-3-5-6-4-2/h3-4H2,1-2H3
