21
gdb 1096	4.06598	1.55413	1.52831	0.9971	71.47	-0.244	0.0805	0.3245	977.9934	0.191545	-312.129019	-312.119517	-312.118573	-312.162768	34.56	
C	-0.150578776	 1.559637411	 0.0117997709	-0.376048
C	 0.0273580889	 0.0484270272	 0.0020275167	-0.043733
O	-1.262011329	-0.5318016229	 0.0112086679	-0.284277
C	-1.3721912342	-1.9631356808	 0.0046072968	 0.375338
C	-0.7304852326	-2.5754613767	 1.2608666403	-0.412522
C	-2.8856576626	-2.2026882389	 0.0178453925	-0.394815
C	-0.7547685571	-2.5618999152	-1.2702201755	-0.412516
H	 0.8228062706	 2.0598653913	 0.0052073434	 0.10931
H	-0.7154937929	 1.884142461	-0.8667441279	 0.122995
H	-0.6986317551	 1.8746711084	 0.9043600467	 0.122995
H	 0.5955326717	-0.2547513556	-0.8904443256	 0.08434
H	 0.6123981458	-0.2642141757	 0.8802229625	 0.084342
H	-1.1270243038	-2.0964007494	 2.161170152	 0.117781
H	-0.9506657498	-3.6461091528	 1.3158021209	 0.11234
H	 0.3577628926	-2.4648264159	 1.2615295988	 0.112351
H	-3.3477891321	-1.7436568082	-0.8606119865	 0.116749
H	-3.1131507035	-3.2727504803	 0.0142643318	 0.106154
H	-3.3307998909	-1.7531951281	 0.9099031949	 0.116747
H	 0.3332702866	-2.4510821319	-1.2906017839	 0.11235
H	-0.9760039489	-3.6319365687	-1.3323590221	 0.112339
H	-1.1685069576	-2.0733082677	-2.1575683745	 0.11778
45.1101	104.8791	193.669	201.4841	246.1872	259.1267	267.1795	326.3294	340.0843	352.9098	443.3608	455.2984	512.71	743.2823	825.0129	852.8637	906.6094	918.5304	956.8356	971.1413	1038.6725	1044.1604	1100.6917	1146.6159	1186.4753	1226.8349	1249.9009	1274.2474	1303.0945	1393.3628	1394.3898	1400.3752	1421.8484	1427.9563	1472.1723	1482.687	1484.2279	1486.1304	1497.8144	1500.7514	1503.688	1517.7178	1533.6975	2979.0778	3006.7536	3036.7355	3038.3494	3042.6066	3045.8054	3105.6494	3109.7645	3111.8644	3114.2112	3116.5218	3119.7953	3120.3785	3121.0044
CCOC(C)(C)C	CCOC(C)(C)C	
InChI=1S/C6H14O/c1-5-7-6(2,3)4/h5H2,1-4H3	InChI=1S/C6H14O/c1-5-7-6(2,3)4/h5H2,1-4H3
