16
gdb 1561	4.29846	1.6862	1.44858	3.3262	58.69	-0.2477	0.0221	0.2698	871.617	0.135855	-362.930315	-362.922001	-362.921057	-362.963626	28.245	
C	-0.1949063549	 1.3851976367	 0.0262395268	-0.349848
N	-0.0373694156	-0.0594804243	-0.036258416	-0.041979
C	 0.0100929326	-0.8167773193	 1.2038206825	-0.184801
C	-1.3725011827	-0.9972526622	 1.8426019162	-0.058293
O	-2.2517934972	-1.7216251491	 1.007662402	-0.414403
C	 0.1613038579	-0.6648645115	-1.2471301075	 0.141646
O	 0.1555161372	-0.1064919939	-2.3234520836	-0.338076
H	 0.6168921064	 1.8365773819	 0.6096466717	 0.127811
H	-0.1645056835	 1.7654387289	-0.9948579763	 0.172484
H	-1.1474824357	 1.6673010164	 0.4875753641	 0.127164
H	 0.4215123482	-1.8066485617	 0.9822040193	 0.127182
H	 0.6884944214	-0.3217828138	 1.9122454461	 0.106164
H	-1.2648603601	-1.579843959	 2.7633266337	 0.117761
H	-1.7926291314	-0.0186905065	 2.1239177193	 0.094262
H	-2.3536695745	-1.2219737067	 0.1901107704	 0.290087
H	 0.3277632319	-1.753388886	-1.1343117888	 0.08284
48.665	88.9453	121.3593	192.5964	272.9933	326.4771	329.6209	372.8919	414.7341	508.4365	648.0227	848.246	875.9705	949.4748	1025.0588	1069.3408	1078.4845	1106.8192	1157.465	1201.0966	1254.7184	1276.1309	1383.15	1389.0925	1412.8723	1429.6747	1436.1569	1443.1529	1478.7859	1495.6471	1506.5617	1520.005	1794.7548	2949.3216	2982.0217	3014.4819	3024.2871	3076.2561	3078.4845	3088.9194	3157.2969	3805.034
CN(CCO)C=O	CN(CCO)C=O	
InChI=1S/C4H9NO2/c1-5(4-7)2-3-6/h4,6H,2-3H2,1H3	InChI=1S/C4H9NO2/c1-5(4-7)2-3-6/h4,6H,2-3H2,1H3
