14
gdb 3310	5.4522	2.29105	2.09253	1.5593	56.94	-0.2453	-0.033	0.2122	653.8441	0.113436	-324.530742	-324.524486	-324.523542	-324.561248	22.707	
O	-0.6560269952	 0.7702814308	-0.4884899461	-0.241615
C	 0.1934302903	 0.9582212632	 0.3458759582	 0.15048
C	 1.3330891349	 1.9354454492	 0.2080956914	-0.033094
C	 1.2876504878	 3.012215044	-0.8987387616	-0.272861
C	 1.2687226122	 4.0338715376	 0.2372596386	-0.003058
C	 0.1480200253	 3.7906196118	 1.1592459676	-0.245461
N	 1.3724832836	 2.9683817924	 1.3247244063	-0.158699
H	 0.1784682321	 0.4219413996	 1.3220373637	 0.089427
H	 2.274088789	 1.3748639691	 0.2366083139	 0.107803
H	 2.1973051954	 3.038403577	-1.4996874877	 0.116544
H	 0.4172961812	 2.9951166032	-1.5587752984	 0.128128
H	 1.8751456887	 4.9320950584	 0.2825840187	 0.102478
H	 0.0117481672	 4.4820534158	 1.9843912392	 0.128077
H	-0.7686879026	 3.3331280078	 0.7937523464	 0.13185
62.6444	187.8986	219.6911	358.6951	477.1378	612.7442	697.4049	759.5691	773.9173	822.4724	912.4043	960.3997	966.746	1000.2215	1056.7398	1091.8716	1101.0807	1115.7654	1138.2011	1161.964	1224.7715	1245.7138	1268.5396	1350.5896	1369.9038	1412.4266	1488.3159	1504.6376	1823.5922	2879.2831	3048.8141	3076.7729	3111.4573	3133.3815	3171.1461	3205.7136
O=CC1CC2CN12	O=C[C@H]1C[C@H]2CN12	
InChI=1S/C5H7NO/c7-3-5-1-4-2-6(4)5/h3-5H,1-2H2	InChI=1S/C5H7NO/c7-3-5-1-4-2-6(4)5/h3-5H,1-2H2/t4-,5+,6?/m0/s1
