12
gdb 366	10.04823	2.20536	1.85033	2.8141	43.25	-0.2705	0.0032	0.2737	640.0833	0.094874	-343.531666	-343.524693	-343.523749	-343.562703	22.716	
C	-0.007291896	 1.3579936912	-0.0284225016	-0.242432
O	 0.0283818054	-0.0783971739	-0.048366287	-0.222591
C	 0.6504843641	-0.6270175057	-1.0950728698	 0.414094
O	 1.1672890165	-0.0072747965	-1.9953400536	-0.370697
C	 0.6450212265	-2.144091901	-1.0426412154	-0.143264
O	 1.3051394853	-2.6796590163	-2.1535703924	-0.419026
H	 1.0063716627	 1.7651596796	-0.0122490568	 0.147081
H	-0.5291639955	 1.7394590313	-0.9091716807	 0.147039
H	-0.5431726969	 1.6269122756	 0.8812176115	 0.140795
H	 1.1213061263	-2.4575549931	-0.1015327865	 0.125963
H	-0.40077897	-2.4828165323	-0.9936294813	 0.125939
H	 1.5975562216	-1.9175139789	-2.6753104365	 0.297099
78.9713	113.106	159.9589	219.3161	347.9623	358.2989	455.242	585.5684	699.218	902.656	1012.9146	1041.7804	1131.1551	1178.3379	1211.4373	1242.7773	1264.9748	1321.5696	1460.0722	1480.7042	1482.8649	1496.244	1499.8108	1808.5999	2996.8784	3017.5686	3056.4805	3133.8163	3166.7948	3719.9106
COC(=O)CO	COC(=O)CO	
InChI=1S/C3H6O3/c1-6-3(5)2-4/h4H,2H2,1H3	InChI=1S/C3H6O3/c1-6-3(5)2-4/h4H,2H2,1H3
