10
gdb 357	10.18019	2.11712	1.7719	5.1353	41.26	-0.2516	-0.0953	0.1563	627.7041	0.069653	-342.297848	-342.291172	-342.290228	-342.328622	21.411	
O	 0.0318711163	 1.421056615	 0.0092716029	-0.387092
C	-0.0239542084	 0.0255232152	 0.0024106665	-0.184066
C	-1.4710122507	-0.4326035097	 0.0137537165	 0.311351
O	-2.4205700726	 0.3012057823	 0.0266329011	-0.244499
C	-1.6452042934	-1.9704202611	 0.0073446846	 0.081205
O	-2.7224254494	-2.4966089005	 0.0147393931	-0.200996
H	 0.9557198948	 1.6884461706	 0.0012288145	 0.299738
H	 0.4558076805	-0.4268181813	-0.8865908898	 0.119238
H	 0.472569383	-0.436144347	 0.877313321	 0.119231
H	-0.7002779303	-2.5618494435	-0.0047063204	 0.08589
68.2382	134.9228	199.7614	256.0894	304.3582	419.1707	454.2927	698.7245	850.097	868.9714	1029.8844	1053.5286	1158.2406	1237.8585	1243.132	1416.4834	1441.9562	1486.7656	1826.7326	1854.6929	2860.9233	2929.4842	2945.2423	3834.4837
OCC(=O)C=O	OCC(=O)C=O	
InChI=1S/C3H4O3/c4-1-3(6)2-5/h1,5H,2H2	InChI=1S/C3H4O3/c4-1-3(6)2-5/h1,5H,2H2
