9
gdb 218	6.4674	6.46702	3.2336	0.0001	43.74	-0.2768	-0.0554	0.2214	384.8085	0.065246	-280.31408	-280.30997	-280.309026	-280.341405	14.209	
C	 0.0110446887	 1.3030501752	 0.0096497371	 0.095455
N	 1.1195004151	 2.0448531978	 0.0027107157	-0.232058
C	 2.2476867307	 1.3335065257	-0.0123123633	 0.095316
N	 2.3358600721	 0.0026568459	-0.020420715	-0.23207
C	 1.1556667969	-0.6187299163	-0.0121192432	 0.095501
N	-0.040955393	-0.0297172832	 0.0029152474	-0.232183
H	-0.9383074071	 1.8340991018	 0.0219242032	 0.136679
H	 3.1822701244	 1.8902337729	-0.0185330372	 0.136683
H	 1.1704112521	-1.7064618198	-0.0181772047	 0.136679
352.0898	352.2871	691.8413	691.8917	763.0661	954.2325	1008.7763	1049.1409	1049.2029	1161.1082	1183.5857	1198.7274	1199.4568	1402.6413	1443.4526	1443.9593	1598.4141	1598.7413	3163.7277	3163.9167	3169.4389
C1=NC=NC=N1	c1ncncn1	
InChI=1S/C3H3N3/c1-4-2-6-3-5-1/h1-3H	InChI=1S/C3H3N3/c1-4-2-6-3-5-1/h1-3H
