15
gdb 3322	6.44928	1.96586	1.76409	2.6981	57.17	-0.2488	0.0782	0.327	741.358	0.12421	-345.595084	-345.588404	-345.58746	-345.62583	24.217	
C	 0.002710195	 1.3173787606	-0.1488663114	-0.235317
O	-0.0459723432	 0.0075653273	 0.3717659806	-0.238368
C	-1.2687469026	-0.6271729235	 0.1589733448	 0.143215
C	-1.6323120645	-1.1898585252	-1.2757741389	-0.297702
C	-1.7745176525	-2.5653980455	-0.6139326258	 0.031573
O	-0.4935050421	-2.8868711071	-0.0712270349	-0.234066
C	-1.3567489073	-2.0524103135	 0.7049173439	-0.01272
H	 0.9869609019	 1.7253596662	 0.0918764457	 0.131144
H	-0.1286348038	 1.3311309671	-1.2411688747	 0.109547
H	-0.76997943	 1.9622796926	 0.2992357169	 0.103141
H	-2.1040370741	-0.0168800719	 0.5392372708	 0.06883
H	-2.5568425245	-0.7718551282	-1.6795265078	 0.104144
H	-0.8341327423	-1.1392563128	-2.0192757199	 0.117439
H	-2.4373926312	-3.3854774923	-0.861888288	 0.106327
H	-1.5907240586	-2.3790753539	 1.7113704488	 0.102811
99.5304	147.4011	188.3835	284.7842	392.6702	448.6486	578.953	733.7835	806.3197	845.5349	868.8448	921.5281	949.3912	1010.5574	1019.3222	1034.4157	1075.5451	1137.6074	1175.8356	1184.0254	1200.7957	1234.2778	1243.8804	1251.715	1292.6763	1385.2283	1388.1008	1465.4903	1483.6843	1487.759	1507.2	2969.2618	2977.0709	3022.8419	3071.6926	3118.9104	3133.555	3184.4131	3200.1171
COC1CC2OC12	CO[C@H]1C[C@H]2O[C@@H]12	
InChI=1S/C5H8O2/c1-6-3-2-4-5(3)7-4/h3-5H,2H2,1H3	InChI=1S/C5H8O2/c1-6-3-2-4-5(3)7-4/h3-5H,2H2,1H3/t3-,4+,5-/m0/s1
