14
gdb 3783	7.52849	1.96	1.57838	2.6227	59.58	-0.1876	0.0298	0.2174	756.6665	0.116134	-320.761539	-320.754969	-320.754025	-320.792096	23.952	
C	-0.0164713994	 1.4422725066	 0.0792741468	-0.32342
N	 0.0323353527	 0.015815367	-0.1955114644	-0.389415
C	-1.1580906895	-0.7049272864	-0.0605694011	 0.244214
C	-1.3121082861	-2.0796670524	 0.0152657181	-0.147674
N	-2.6538967362	-2.3057141344	 0.0799580923	-0.172658
N	-3.3848420731	-1.1871053986	 0.0505804002	-0.228359
C	-2.4848013308	-0.2055210854	-0.0317641554	-0.069888
H	 0.9913417909	 1.8557167527	-0.006478631	 0.120322
H	-0.6426818746	 1.9425783006	-0.6670131024	 0.134015
H	-0.4152750839	 1.6920959023	 1.0762150034	 0.109146
H	 0.8115714612	-0.4360676577	 0.26122674	 0.230676
H	-0.5934960984	-2.883203847	 0.0235560564	 0.11944
H	-3.1206913122	-3.1932306756	 0.1479768075	 0.271716
H	-2.8157458405	 0.8208343083	-0.0697724906	 0.101886
76.9452	189.7663	232.7418	325.9938	438.9542	468.7142	572.6075	649.9843	690.0974	710.89	740.355	847.2606	947.6133	996.3009	1063.9822	1093.2929	1153.5104	1162.2151	1174.6304	1274.5561	1327.5081	1389.5892	1398.7062	1463.1367	1482.3215	1492.6091	1519.4878	1523.4844	1636.8148	2968.9626	3065.2855	3116.3324	3254.934	3262.2381	3582.8521	3682.0861
CNC1=CNN=C1	CNc1c[nH]nc1	
InChI=1S/C4H7N3/c1-5-4-2-6-7-3-4/h2-3,5H,1H3,(H,6,7)	InChI=1S/C4H7N3/c1-5-4-2-6-7-3-4/h2-3,5H,1H3,(H,6,7)
