16
gdb 1125	4.87307	1.71279	1.48636	2.2997	57.6	-0.2643	0.0599	0.3242	869.2448	0.135443	-362.972786	-362.964484	-362.96354	-363.005362	29.57	
C	-0.0377174079	 1.5211457574	-0.0508114643	-0.395387
C	 0.0036882764	-0.0021852051	 0.0129806771	 0.15787
C	 0.6330322715	-0.5379904664	 1.2907869509	-0.393367
O	-1.3455701349	-0.5315799543	-0.0212099744	-0.274299
C	-1.909741072	-0.6550698684	-1.2462305522	 0.492679
N	-3.1982690161	-1.0982478353	-1.1189981195	-0.559918
O	-1.3701311151	-0.3889746991	-2.2961269989	-0.404022
H	 0.9778347486	 1.9271218127	-0.0053170487	 0.11544
H	-0.4962367047	 1.8489950797	-0.9860776198	 0.142857
H	-0.6093405495	 1.927213373	 0.7900549707	 0.117326
H	 0.5280909768	-0.3877020114	-0.8657717694	 0.109228
H	 0.0880143953	-0.1829577377	 2.1712914798	 0.122216
H	 0.6257238763	-1.6313101324	 1.2988716857	 0.121169
H	 1.6700145647	-0.1986064941	 1.36921356	 0.119443
H	-3.4810989172	-1.5101187023	-0.2459190308	 0.26209
H	-3.632814072	-1.4348818762	-1.960938926	 0.266675
64.2986	103.3114	198.1104	217.4395	259.6813	319.01	359.4137	405.7121	446.3061	484.3602	523.7646	660.0546	785.9274	826.9505	902.7849	932.1696	950.8341	1051.7777	1110.3689	1147.7673	1164.	1203.2638	1337.2974	1370.3808	1399.9289	1405.0627	1417.2506	1481.4694	1486.123	1496.3863	1511.5599	1610.7848	1824.806	3039.1934	3043.397	3074.7813	3108.265	3118.9861	3121.0009	3134.8305	3612.1296	3741.7008
CC(C)OC(N)=O	CC(C)OC(=O)N	
InChI=1S/C4H9NO2/c1-3(2)7-4(5)6/h3H,1-2H3,(H2,5,6)	InChI=1S/C4H9NO2/c1-3(2)7-4(5)6/h3H,1-2H3,(H2,5,6)
