13
gdb 837	7.3351	1.98909	1.58013	2.07	56.37	-0.1985	0.0258	0.2243	745.1526	0.101451	-344.482088	-344.475321	-344.474377	-344.51269	24.408	
C	 0.0402172807	 1.4735776274	 0.022499818	-0.488182
C	-0.0732133032	-0.0087145216	 0.0106629533	 0.400656
C	-1.1119284023	-0.8600313699	-0.2209414369	-0.422869
C	-0.5797007902	-2.1858113365	-0.0852502639	 0.306802
O	-1.2326969531	-3.3715144184	-0.225336246	-0.440287
C	 0.7385118333	-2.0473412284	 0.2179058799	-0.119632
O	 1.0538065494	-0.7140743834	 0.2775682274	-0.180604
H	 0.7662048597	 1.8261140583	-0.7189374851	 0.139597
H	-0.9282347616	 1.9236663423	-0.206382189	 0.133155
H	 0.3675942168	 1.8430256659	 1.0009700859	 0.139572
H	-2.1284202711	-0.5832171753	-0.4583377641	 0.100687
H	-2.1536667588	-3.1920409754	-0.4334985509	 0.299996
H	 1.5347164504	-2.744406115	 0.4084401215	 0.131109
100.9019	185.9357	206.74	282.0645	361.0674	437.1569	593.6928	618.9567	652.0548	697.4976	736.5274	768.7601	942.9871	994.4131	1025.7798	1062.0645	1151.4381	1172.4873	1183.1031	1288.0221	1330.4263	1414.6494	1443.7961	1471.2859	1490.9685	1596.3532	1692.6905	3031.0232	3081.4032	3129.2841	3240.7243	3298.3256	3849.0762
CC1=CC(O)=CO1	Cc1cc(O)co1	
InChI=1S/C5H6O2/c1-4-2-5(6)3-7-4/h2-3,6H,1H3	InChI=1S/C5H6O2/c1-4-2-5(6)3-7-4/h2-3,6H,1H3
