12
gdb 2870	8.10389	1.95706	1.60811	1.3752	59.6	-0.247	-0.0297	0.2173	728.8947	0.090511	-323.352987	-323.346654	-323.34571	-323.383523	22.256	
C	 0.0768574217	-1.1619018131	-0.0651539734	-0.361278
C	-0.0035876115	 0.035133376	-0.0086946577	 0.287606
C	-0.0865899222	 1.4556778534	 0.0603289329	 0.251387
N	-1.1524757304	 2.1393848986	-0.0729457641	-0.31611
C	-0.7556323444	 3.5468151629	 0.0732162519	-0.196034
C	 0.7755361351	 3.5062874942	 0.3192651222	-0.116756
O	 1.0952668521	 2.0968285301	 0.2893706279	-0.253544
H	 0.1385154875	-2.2212246973	-0.1166656978	 0.208079
H	-1.0232890042	 4.1012321737	-0.8324444011	 0.124538
H	-1.3051385555	 4.0002689305	 0.904880752	 0.124538
H	 1.3580607902	 4.0043922936	-0.460526143	 0.123787
H	 1.0734769216	 3.9026278773	 1.2937698102	 0.123789
80.7806	157.2416	169.0569	380.4947	526.3663	585.9077	652.8447	669.7884	716.3689	760.2983	828.2515	918.2489	974.0675	1009.8372	1016.6163	1117.1226	1213.3798	1233.0323	1245.9606	1339.5044	1381.2945	1499.0823	1526.3722	1695.0306	2253.2321	3042.6179	3057.8799	3070.7073	3106.2832	3502.1206
C#CC1=NCCO1	C#CC1=NCCO1	
InChI=1S/C5H5NO/c1-2-5-6-3-4-7-5/h1H,3-4H2	InChI=1S/C5H5NO/c1-2-5-6-3-4-7-5/h1H,3-4H2
