13
gdb 842	7.12861	2.13449	1.6621	1.5474	56.14	-0.2026	0.0352	0.2377	723.5225	0.103063	-340.678945	-340.67244	-340.671496	-340.708998	24.035	
C	-0.0134440349	 1.485429378	 0.0380837741	-0.490076
C	 0.0090734654	-0.0034828153	-0.020720815	 0.263771
C	-0.052871168	-0.8227382734	-1.0921220611	-0.13641
O	 0.0047460913	-2.1320786769	-0.6356969535	-0.183173
C	 0.0969529221	-1.9993734054	 0.7034480845	 0.451466
N	 0.2390113111	-3.1567703299	 1.4278405895	-0.587184
N	 0.1010843667	-0.7789932978	 1.1419072891	-0.378952
H	 0.8999725953	 1.8708143226	 0.5038658275	 0.136613
H	-0.0997360283	 1.91824522	-0.9618952711	 0.120964
H	-0.855972371	 1.8390859344	 0.6421151433	 0.135045
H	-0.1359235759	-0.6933695639	-2.1564163867	 0.134692
H	-0.2063756987	-3.9664022897	 1.0214664619	 0.263248
H	 0.0324927149	-3.0321832726	 2.4077081175	 0.269995
150.5282	203.2096	272.2121	310.7445	347.5686	452.699	591.7347	629.2906	643.3962	686.1693	755.5802	780.8721	964.8698	992.5752	1026.383	1067.0185	1105.8848	1140.4779	1237.1817	1302.9522	1417.2342	1445.0937	1474.1437	1491.0265	1604.3271	1651.7785	1685.0022	3035.5959	3090.1327	3120.4738	3301.2227	3576.667	3685.3203
CC1=COC(N)=N1	Cc1coc(N)n1	
InChI=1S/C4H6N2O/c1-3-2-7-4(5)6-3/h2H,1H3,(H2,5,6)	InChI=1S/C4H6N2O/c1-3-2-7-4(5)6-3/h2H,1H3,(H2,5,6)
