18
gdb 2332	6.07693	1.25263	1.14017	1.9442	64.73	-0.2433	0.0771	0.3205	1062.7557	0.159507	-326.947461	-326.939074	-326.938129	-326.980538	29.614	
C	 0.0957994878	 1.5461829691	-0.22470311	-0.392095
C	 0.0243991948	 0.0632072654	 0.0510814656	-0.001894
N	 1.2948256167	-0.6831832484	 0.079669158	-0.339293
C	 0.4825940063	-0.5884722299	 1.3097035211	-0.015333
C	 1.0932638885	 0.1390825642	 2.484562785	-0.182552
C	 2.1103824062	-0.7260905093	 3.2207163872	-0.064759
O	 2.6036927018	 0.0222419709	 4.3221738665	-0.423017
H	 0.9742507285	 1.9970549911	 0.2409570662	 0.130321
H	 0.1606941436	 1.7299609351	-1.3026068426	 0.118265
H	-0.7983093843	 2.0563736875	 0.1501887752	 0.114857
H	-0.8160026602	-0.431842229	-0.4360238235	 0.077818
H	 1.1860542517	-1.5954701055	-0.3541474254	 0.226703
H	-0.0728417665	-1.4843982211	 1.5913683363	 0.075653
H	 1.5952298594	 1.0520226887	 2.1539077299	 0.112128
H	 0.3057745775	 0.4365147518	 3.1880798624	 0.103001
H	 1.6314010014	-1.6609236694	 3.5586383702	 0.075406
H	 2.9168590217	-1.0020956794	 2.5248120674	 0.100594
H	 3.2940229048	-0.4926020317	 4.7495874507	 0.284197
69.7057	97.7338	127.1332	182.0936	257.0291	257.5133	346.2723	395.9856	485.9403	516.5477	761.0706	808.5055	839.8184	885.489	975.8748	984.9095	1017.4232	1046.7754	1065.5115	1081.1824	1108.726	1161.9573	1204.9837	1235.6495	1247.2372	1271.4834	1277.4354	1315.2607	1328.1598	1402.7498	1429.7315	1458.7691	1470.9342	1479.8131	1492.5372	1505.3523	1528.9842	2954.8325	3003.7853	3035.8566	3041.0162	3083.6461	3094.5518	3100.1908	3106.9763	3135.2616	3505.6168	3831.6132
CC1NC1CCO	C[C@H]1N[C@H]1CCO	
InChI=1S/C5H11NO/c1-4-5(6-4)2-3-7/h4-7H,2-3H2,1H3	InChI=1S/C5H11NO/c1-4-5(6-4)2-3-7/h4-7H,2-3H2,1H3/t4-,5+/m1/s1
