11
gdb 2874	8.09235	1.97691	1.62107	4.9482	53.7	-0.2767	-0.0575	0.2192	704.9626	0.080115	-339.452794	-339.446818	-339.445874	-339.483063	20.317	
N	 0.062779763	-1.1177237903	-0.0857610021	-0.309513
C	-0.0033822933	 0.0334775527	-0.0234490602	 0.29316
C	-0.0802829165	 1.4665545097	 0.055017444	 0.323478
N	-1.1523413656	 2.132636814	-0.0760673789	-0.295343
C	-0.7600810705	 3.5441189228	 0.0765586499	-0.194355
C	 0.7721424279	 3.5087839753	 0.3220420906	-0.116909
O	 1.0975700569	 2.0939537645	 0.284814065	-0.249061
H	-1.0330005578	 4.0959835722	-0.8280202083	 0.137877
H	-1.3140430527	 3.9861873	 0.9102207734	 0.13788
H	 1.3544159791	 4.0069974268	-0.4564588245	 0.136397
H	 1.0705330596	 3.8954914523	 1.2991581011	 0.136388
90.5478	164.3866	181.3974	423.6921	553.1822	571.1088	712.9297	757.3131	825.8237	917.9694	977.517	999.1439	1010.7611	1115.4041	1212.9395	1242.1037	1247.0195	1340.3297	1384.7687	1496.0123	1524.6129	1706.7572	2375.4523	3055.0408	3070.156	3087.1973	3122.6416
N#CC1=NCCO1	N#CC1=NCCO1	
InChI=1S/C4H4N2O/c5-3-4-6-1-2-7-4/h1-2H2	InChI=1S/C4H4N2O/c5-3-4-6-1-2-7-4/h1-2H2
