12
gdb 2499	4.45023	2.23091	1.48598	5.249	56.66	-0.2514	-0.0359	0.2155	758.7463	0.089798	-356.706262	-356.699087	-356.698143	-356.738055	23.895	
N	 0.0009811666	 1.2705759976	 0.0085495038	-0.461571
C	-0.0591303252	 0.0060219892	 0.002639944	 0.117768
N	-1.2711253462	-0.7043335933	 0.0103933928	-0.104869
C	-1.187429511	-2.1103202824	 0.0023914005	 0.100366
N	-2.1846975293	-2.8851221551	 0.0066823916	-0.412957
C	-2.4901280524	 0.0290363121	 0.025810606	 0.171961
O	-3.5843020888	-0.4556573213	 0.0341096406	-0.253376
H	 0.9686542679	 1.5836075625	 0.0010742884	 0.242039
H	 0.8044198585	-0.6679249157	-0.0089090839	 0.112814
H	-0.1379542892	-2.4308266463	-0.008139676	 0.103495
H	-1.8643434965	-3.8528050059	-0.0010449159	 0.236772
H	-2.2754118942	 1.1065840486	 0.0290628581	 0.147557
72.0982	101.6721	204.8872	250.4907	266.6903	296.6158	499.5954	551.1222	718.587	813.6296	831.0954	881.2115	1043.2506	1060.1569	1070.5178	1114.403	1201.3885	1261.1322	1367.0382	1420.4583	1444.6352	1471.8023	1710.8154	1754.6842	1850.2531	3027.8523	3053.7968	3058.4164	3494.5426	3523.8999
N=CN(C=N)C=O	N=CN(C=N)C=O	
InChI=1S/C3H5N3O/c4-1-6(2-5)3-7/h1-5H	InChI=1S/C3H5N3O/c4-1-6(2-5)3-7/h1-5H
