13
gdb 4592	5.80187	1.54223	1.21837	2.1123	63.79	-0.2119	-0.0238	0.188	904.6834	0.097473	-398.667104	-398.660668	-398.659724	-398.697434	25.095	
O	 0.0415821378	 1.3601814551	-0.1451103357	-0.444926
C	 0.0572496802	-0.0003998819	-0.0316407132	 0.329463
C	 0.0698843589	-0.7579387943	-1.1996520469	-0.05817
N	 0.0856175086	-2.0932706483	-1.2009305762	-0.351514
C	 0.0893603555	-2.7257093935	-0.0350349884	 0.424917
O	 0.1053716942	-4.0798549453	-0.0547568679	-0.42553
C	 0.0776799659	-2.0658326724	 1.1962137352	-0.192098
C	 0.0613831736	-0.6801248389	 1.1887083194	-0.205226
H	 0.0341445195	 1.7520908591	 0.7338483847	 0.297803
H	 0.0670422305	-0.2566590906	-2.1634029733	 0.118549
H	 0.1112574723	-4.3285137772	-0.9890618875	 0.296141
H	 0.0814335184	-2.6328358453	 2.1186526941	 0.112855
H	 0.0519171946	-0.1283595967	 2.1252353757	 0.097735
151.3901	294.3591	344.5203	375.7067	442.627	448.1013	491.1262	498.5021	560.7315	658.5031	772.4161	782.2376	846.1207	883.4057	940.7104	949.5233	1027.8221	1136.7183	1174.2737	1209.5141	1294.6986	1327.76	1342.0779	1361.8721	1488.8443	1530.8619	1636.5885	1666.4369	3160.9259	3172.1388	3212.651	3774.2184	3828.4891
OC1=CN=C(O)C=C1	Oc1cnc(O)cc1	
InChI=1S/C5H5NO2/c7-4-1-2-5(8)6-3-4/h1-3,7H,(H,6,8)	InChI=1S/C5H5NO2/c7-4-1-2-5(8)6-3-4/h1-3,7H,(H,6,8)
