12
gdb 4294	3.90208	2.02219	1.33194	6.2163	58.58	-0.2336	-0.0238	0.2099	827.541	0.086505	-414.731098	-414.724851	-414.723906	-414.76153	23.741	
O	-0.1027649553	 1.3187491978	 0.0102287445	-0.407773
C	 0.0271367467	-0.0177548146	 0.002728088	 0.513524
N	 1.1788747589	-0.5829552762	-0.0067289657	-0.417615
C	 1.2607515171	-1.9929789636	-0.0140465911	 0.374141
O	 2.3324586991	-2.5627157474	-0.0241409303	-0.363277
C	-0.026920242	-2.7126698702	-0.0108327554	-0.222788
C	-1.1877055782	-2.0377290074	-0.0007035496	 0.013361
N	-1.1766561872	-0.6566841101	 0.0064173793	-0.352055
H	 0.8008241792	 1.6668280311	 0.0067983839	 0.31858
H	-0.0063166815	-3.7939725644	-0.0167478517	 0.122037
H	-2.1675351431	-2.4985726138	 0.0023860593	 0.141943
H	-2.0250027536	-0.1141905912	 0.0140364287	 0.279922
131.313	208.1681	370.4257	404.2987	505.6768	525.2438	549.9199	558.7313	562.5213	723.2154	767.6219	772.13	847.5499	949.3604	966.2424	1010.8168	1074.6664	1201.6094	1216.3536	1263.7615	1374.1079	1426.1129	1552.9018	1635.7369	1717.7272	1784.9648	3212.1728	3236.4292	3653.5826	3768.1581
OC1=NC(=O)C=CN1	Oc1nc(=O)cc[nH]1	
InChI=1S/C4H4N2O2/c7-3-1-2-5-4(8)6-3/h1-2H,(H2,5,6,7,8)	InChI=1S/C4H4N2O2/c7-3-1-2-5-4(8)6-3/h1-2H,(H2,5,6,7,8)
