14
gdb 1224	7.79194	1.20904	1.12286	3.6554	56.48	-0.2523	-0.0325	0.2198	1013.9196	0.110928	-361.755719	-361.74742	-361.746476	-361.790178	26.965	
C	-0.0019046627	 1.4635397477	 0.1759931932	-0.486684
C	 0.0059535973	-0.0437518598	-0.0114432635	 0.411669
O	 0.986621298	-0.7278465486	 0.2099322808	-0.359431
N	-1.1725042871	-0.5780342747	-0.4713461478	-0.323136
C	-1.3095221282	-1.9865229431	-0.7688343906	-0.241712
C	-2.2751554022	-2.6858658545	 0.1753812118	 0.152516
O	-3.0136480669	-3.5764265304	-0.150827576	-0.230518
H	 0.5542367757	 1.706307888	 1.0829104469	 0.158619
H	 0.5187646216	 1.9288933769	-0.6669806914	 0.15673
H	-1.0074214424	 1.8877680514	 0.2404436517	 0.117471
H	-1.9436947995	 0.0372262339	-0.6707738102	 0.25169
H	-1.6215151857	-2.1678690585	-1.802466292	 0.13177
H	-0.3136264467	-2.4242078569	-0.6211237165	 0.176663
H	-2.2382547712	-2.2992155913	 1.2198450536	 0.084352
34.8437	54.9676	72.0387	112.1431	270.7159	343.7983	390.013	442.7914	529.096	613.2942	634.5289	776.0724	897.4222	994.3819	1048.3851	1057.9164	1099.824	1131.9791	1247.6923	1270.0339	1336.865	1394.4404	1412.0199	1444.9193	1467.6508	1487.0625	1530.1276	1787.5323	1840.3463	2875.6812	3036.6468	3049.3155	3092.7796	3118.4857	3146.7993	3648.9519
CC(=O)NCC=O	CC(=O)NCC=O	
InChI=1S/C4H7NO2/c1-4(7)5-2-3-6/h3H,2H2,1H3,(H,5,7)	InChI=1S/C4H7NO2/c1-4(7)5-2-3-6/h3H,2H2,1H3,(H,5,7)
