15
gdb 1435	8.67621	1.30447	1.15914	2.7209	63.33	-0.2479	-0.0146	0.2334	1004.0902	0.121391	-308.50722	-308.498741	-308.497797	-308.541286	28.912	
C	 0.141812506	 1.531070372	 0.0148391651	-0.379439
C	-0.0550591929	 0.0188946622	-0.0545033493	-0.276874
C	-1.5163198591	-0.4048751034	 0.0252391861	 0.381993
O	-2.4240914414	 0.3861570951	 0.0442716871	-0.27195
C	-1.7430907661	-1.9291913127	 0.0855632923	-0.480982
C	-3.134370341	-2.3398684557	 0.0211658168	 0.325786
C	-4.2826969915	-2.685522988	-0.0342933411	-0.423978
H	 1.2017898706	 1.7862947796	-0.0679847231	 0.111788
H	-0.4011515828	 2.0301734513	-0.7911703779	 0.136683
H	-0.2378441639	 1.9314664058	 0.9584110304	 0.13208
H	 0.3551205557	-0.3894205609	-0.9892362897	 0.12547
H	 0.4968249798	-0.494530307	 0.7447323777	 0.119857
H	-1.1614033835	-2.3945384486	-0.7217690563	 0.147848
H	-1.2779264111	-2.2884956083	 1.014841085	 0.153196
H	-5.300819229	-2.9825597615	-0.083556493	 0.198521
24.2117	54.7929	124.6319	193.0769	246.72	320.1413	356.7599	413.2187	459.9749	624.2928	641.5507	659.9886	736.594	826.7456	897.329	939.6697	1009.7061	1045.8783	1086.2405	1122.7303	1216.3561	1290.2192	1323.9997	1370.1939	1414.7199	1436.6499	1454.7381	1492.6183	1498.2616	1827.8792	2249.9893	3008.8842	3017.9228	3036.8252	3046.7356	3052.5393	3123.2582	3130.5401	3507.7266
CCC(=O)CC#C	CCC(=O)CC#C	
InChI=1S/C6H8O/c1-3-5-6(7)4-2/h1H,4-5H2,2H3	InChI=1S/C6H8O/c1-3-5-6(7)4-2/h1H,4-5H2,2H3
