19
gdb 1747	4.9338	1.4686	1.32385	1.3838	67.46	-0.2608	0.0804	0.3413	973.1974	0.170594	-310.90496	-310.896582	-310.895638	-310.937505	30.722	
C	 0.0453966926	 1.583234646	 0.2560076875	-0.461685
C	-0.0252984873	 0.080909661	 0.0458564472	 0.382399
C	-1.3535166191	-0.455826674	-0.4640549385	-0.246948
C	-1.7261974562	 0.021990526	-1.8650130426	-0.073326
O	-2.9361455927	-0.6280761835	-2.2299480238	-0.420455
C	 1.2344307416	-0.625832328	-0.4028967497	-0.295707
C	 0.7401166446	-0.7876175274	 1.0158356742	-0.311553
H	 1.0140991289	 1.8758190228	 0.6732315806	 0.111223
H	-0.0864872979	 2.1354140802	-0.6811541552	 0.115007
H	-0.7320311593	 1.9207817606	 0.9519735537	 0.114648
H	-1.3264373004	-1.5514558572	-0.4847023777	 0.101024
H	-2.1618440797	-0.177417563	 0.2245869502	 0.1008
H	-1.8493373623	 1.1160741732	-1.8768680567	 0.084719
H	-0.912822101	-0.2227907195	-2.5670056643	 0.085867
H	-3.191306623	-0.3182609724	-3.1036013569	 0.284072
H	 1.1377286939	-1.473146599	-1.0740509443	 0.108554
H	 2.1269338363	-0.0313675044	-0.5684203065	 0.106032
H	 1.2973821752	-0.2991524727	 1.8086149992	 0.106272
H	 0.3097753357	-1.7419708388	 1.3008299035	 0.109057
88.7888	96.4331	177.9617	222.2145	267.3094	311.765	337.2789	356.7137	417.0955	470.6022	731.5059	787.5481	801.1494	867.9098	917.5064	953.8421	958.3201	1011.6814	1034.0842	1053.6268	1074.5169	1079.3801	1100.3512	1131.5563	1189.2629	1221.12	1245.575	1303.847	1309.4555	1350.1938	1374.45	1421.149	1459.8809	1470.1599	1484.002	1496.6015	1501.9654	1512.1897	1529.4402	2968.6477	2995.4824	3021.7063	3025.619	3069.2073	3082.529	3097.8404	3124.5139	3129.2975	3201.8059	3216.3129	3830.7912
CC1(CCO)CC1	CC1(CCO)CC1	
InChI=1S/C6H12O/c1-6(2-3-6)4-5-7/h7H,2-5H2,1H3	InChI=1S/C6H12O/c1-6(2-3-6)4-5-7/h7H,2-5H2,1H3
