17
gdb 2111	4.50033	2.32372	1.67193	0.3203	60.03	-0.2421	0.0714	0.3136	756.407	0.150255	-346.860694	-346.854023	-346.853079	-346.890929	25.811	
O	-0.0535996083	 1.4340928989	-0.0136403461	-0.431449
C	 0.011456222	 0.0154284462	 0.0035149088	 0.112321
C	-1.4170540749	-0.5207591191	 0.0515546302	-0.19931
C	-1.414540153	-2.0492921654	-0.0958205019	-0.212507
C	-0.604154714	-2.4627859077	-1.3261970917	-0.061634
O	 0.7146125131	-1.9375681075	-1.2878247184	-0.243034
C	 0.7198871953	-0.5231096927	-1.2483718943	-0.099216
H	 0.8440357991	 1.777332468	 0.0430010839	 0.283087
H	 0.559241968	-0.3427393201	 0.8904126289	 0.069375
H	-1.9032096341	-0.2079613539	 0.9808977542	 0.10228
H	-1.9776049738	-0.0623331193	-0.773845791	 0.104312
H	-0.9675791179	-2.5110034941	 0.7930758959	 0.104881
H	-2.4380088129	-2.4317999891	-0.1797139339	 0.097661
H	-0.4950938349	-3.5494835941	-1.3856089295	 0.105348
H	-1.1162398473	-2.1220607126	-2.243186196	 0.085166
H	 0.2250395596	-0.0983276685	-2.1387892533	 0.090502
H	 1.7718741041	-0.2160150392	-1.2660195258	 0.092216
160.7409	236.9524	284.6225	332.1058	353.949	427.9465	460.1775	472.8268	586.905	814.2014	869.5789	879.3787	922.4822	980.9149	990.3176	1037.0877	1089.5755	1105.3604	1126.1184	1164.099	1191.5021	1227.2636	1268.4197	1305.1704	1317.1429	1342.8162	1343.5791	1373.8732	1396.1838	1413.0762	1441.3332	1480.6751	1489.9655	1492.8842	1507.0108	2953.6613	2961.5964	2973.5455	3028.0628	3031.3088	3061.0185	3074.5367	3082.7591	3087.5199	3814.0018
OC1CCCOC1	O[C@H]1CCCOC1	
InChI=1S/C5H10O2/c6-5-2-1-3-7-4-5/h5-6H,1-4H2	InChI=1S/C5H10O2/c6-5-2-1-3-7-4-5/h5-6H,1-4H2/t5-/m0/s1
