18
gdb 1260	6.86865	1.18236	1.075	2.9358	69.51	-0.2434	0.0303	0.2738	1145.7729	0.157325	-326.983087	-326.974203	-326.973259	-327.016616	30.805	
C	 0.0509838447	 1.4027201284	 0.005412596	-0.313544
N	-0.0017578155	-0.0433226371	 0.0331738388	-0.209753
C	 0.5191770499	-0.6574936832	-0.9333973981	 0.131351
O	 0.4762726845	-2.0004235592	-1.0069382638	-0.211355
C	 1.2536650522	-2.6227104559	-2.0455428997	 0.128454
C	 2.6935501465	-2.8149181195	-1.5744367981	-0.38176
C	 0.5564523551	-3.9335738084	-2.3833258767	-0.387377
H	 0.5731396197	 1.8172679791	-0.8734130571	 0.092281
H	-0.9664183611	 1.8108339192	 0.0214645348	 0.125985
H	 0.5536188525	 1.7707733955	 0.9073581567	 0.125374
H	 1.0198629031	-0.1699290035	-1.7868968937	 0.068072
H	 1.2418266358	-1.9665036915	-2.9282908815	 0.081945
H	 2.7179024371	-3.4431974958	-0.6789074093	 0.133113
H	 3.291474329	-3.2960531643	-2.3548090163	 0.118452
H	 3.1589030864	-1.8550088718	-1.3311783124	 0.12094
H	-0.4709318996	-3.7508003447	-2.7081225168	 0.128016
H	 1.0902574041	-4.4531864805	-3.1843364977	 0.117346
H	 0.5281653055	-4.5860492269	-1.505531195	 0.132457
52.9764	95.7238	162.8194	205.4738	214.2621	254.9256	300.3801	320.1502	362.6391	441.8139	495.5336	583.6359	852.4715	930.4384	945.4207	958.6976	987.4107	1055.6819	1140.1134	1141.6881	1154.3331	1164.5495	1200.9165	1259.3903	1364.6271	1368.7835	1401.8013	1416.2259	1423.5907	1450.6252	1479.5962	1480.7312	1485.4249	1493.8796	1505.5468	1508.795	1776.6599	2960.091	2972.1937	2997.6478	3038.3158	3046.5905	3054.1785	3073.61	3111.8843	3116.1681	3122.9241	3126.5262
CN=COC(C)C	CN=COC(C)C	
InChI=1S/C5H11NO/c1-5(2)7-4-6-3/h4-5H,1-3H3	InChI=1S/C5H11NO/c1-5(2)7-4-6-3/h4-5H,1-3H3
