15
gdb 4497	3.70821	1.73326	1.19579	0.8152	66.09	-0.1738	0.0369	0.2107	971.568	0.118104	-399.823894	-399.815554	-399.814609	-399.856472	30.002	
C	 0.0960550307	 1.4725158533	 0.0085997686	-0.489411
C	-0.0674671415	-0.0027819078	-0.0315762147	 0.368084
C	-1.1408340865	-0.829821164	-0.1273564404	-0.386721
C	-0.6243560456	-2.1710787699	-0.087759009	 0.193463
O	-1.3073730483	-3.364598984	-0.071796035	-0.4567
C	 0.7287220285	-2.0620905913	 0.0173729248	 0.276581
N	 1.7563895499	-3.0013372747	 0.0161503921	-0.60242
O	 1.084135223	-0.7502478914	 0.0545262486	-0.204912
H	 0.7217268585	 1.8366189515	-0.8152087928	 0.133938
H	-0.8819300154	 1.9532611482	-0.069309484	 0.131639
H	 0.5643155507	 1.8044320401	 0.9431689311	 0.132846
H	-2.1760057909	-0.5319002263	-0.1967434456	 0.102058
H	-1.9012558484	-3.3921864706	-0.8290004518	 0.296387
H	 1.3609960318	-3.9342103058	 0.0025934756	 0.256025
H	 2.3705191334	-2.9123380072	 0.8198839826	 0.249143
111.2316	124.4007	177.5714	227.0955	264.5533	273.1658	275.3428	345.3956	509.4285	594.3654	628.8981	657.1582	664.1563	780.0764	796.0084	839.4361	968.2578	1013.4818	1062.9409	1087.0313	1161.9176	1165.6579	1265.2288	1316.7705	1339.5405	1417.4621	1450.9957	1470.4257	1495.2679	1624.1383	1642.822	1721.2375	3021.8233	3067.8	3124.3866	3247.0545	3500.4701	3604.3859	3804.248
CC1=CC(O)=C(N)O1	Cc1cc(O)c(N)o1	
InChI=1S/C5H7NO2/c1-3-2-4(7)5(6)8-3/h2,7H,6H2,1H3	InChI=1S/C5H7NO2/c1-3-2-4(7)5(6)8-3/h2,7H,6H2,1H3
