10
gdb 908	6.1468	2.96763	2.00138	4.1255	51.09	-0.2655	-0.0496	0.2159	575.5169	0.069314	-355.514134	-355.508965	-355.508021	-355.543475	18.417	
N	-0.0778317211	 1.3025935377	-0.1073397156	-0.481964
C	-0.012271575	 0.0444082812	 0.0444948223	 0.374573
N	 1.2234224494	-0.6577280767	 0.1297060894	-0.284606
C	 1.1793836491	-1.9122182891	 0.2811151201	 0.133954
O	 0.0482115434	-2.6733141795	 0.3725474662	-0.18173
C	-1.115435426	-1.9515338575	 0.2849302215	 0.129794
N	-1.2104796179	-0.7016449206	 0.134029242	-0.240277
H	 0.8729755401	 1.6735601476	-0.1517200831	 0.231901
H	 2.069349747	-2.530402245	 0.3560691411	 0.158307
H	-1.9785616789	-2.605486298	 0.3634996761	 0.160049
76.8071	419.2739	442.1071	477.2355	552.8322	684.6845	802.9299	830.4041	927.2404	930.9576	963.9518	971.6276	975.7041	1070.8682	1153.5934	1336.2401	1404.1945	1412.8237	1645.5886	1721.6559	1759.0049	3188.9591	3196.7334	3479.8761
N=C1N=COC=N1	[NH][C@@H]1N=COC=N1	
InChI=1S/C3H3N3O/c4-3-5-1-7-2-6-3/h1-2,4H	InChI=1S/C3H4N3O/c4-3-5-1-7-2-6-3/h1-4H
