12
gdb 4329	4.14742	2.03925	1.36707	3.991	59.97	-0.2329	-0.0469	0.186	813.9839	0.087816	-410.899208	-410.89314	-410.892196	-410.929509	22.988	
O	-0.0168012666	 1.2923618062	 0.0077033299	-0.377866
C	-0.0276123121	-0.0415350311	 0.0008506342	 0.437825
N	-1.1796538774	-0.631494144	 0.0039136882	-0.340895
C	-1.1959317672	-2.0126861023	-0.0032683564	 0.417009
N	-2.2041129527	-2.7891236752	-0.0019513262	-0.56883
N	 0.0842102991	-2.629918233	-0.0133671052	-0.287484
C	 1.211317986	-1.9096074912	-0.0156426668	 0.12252
N	 1.2347066337	-0.610477279	-0.0089525843	-0.374329
H	 0.9127576714	 1.5593506464	 0.0040843591	 0.311143
H	-3.0529074892	-2.2261131094	 0.0055555552	 0.229413
H	 0.0931431529	-3.6396685996	-0.0187273506	 0.281627
H	 2.146744072	-2.4641436477	-0.0235892671	 0.149866
135.9828	196.3505	377.4583	418.7499	525.5347	565.5266	574.0319	588.4808	668.4365	744.5963	803.5143	805.9124	856.8485	949.9955	985.797	1003.1747	1104.9619	1197.9397	1274.9867	1316.2868	1381.1699	1431.4742	1489.9363	1603.1733	1707.6383	1750.7026	3170.4433	3515.6488	3621.2434	3780.871
OC1=NC(=N)NC=N1	OC1=NCNC(=N1)[NH]	
InChI=1S/C3H4N4O/c4-2-5-1-6-3(8)7-2/h1H,(H3,4,5,6,7,8)	InChI=1S/C3H5N4O/c4-2-5-1-6-3(8)7-2/h4H,1H2,(H2,5,6,7,8)
