15
gdb 2603	3.36217	2.76283	1.82238	2.8418	58.76	-0.2422	-0.0212	0.221	726.8742	0.12295	-345.637577	-345.630139	-345.629195	-345.668891	26.594	
C	 0.1102421078	 1.2865223634	 0.2173403556	-0.258441
O	-0.2160041791	-0.0528075985	-0.1391815557	-0.27796
C	 0.5157928357	-0.5649418261	-1.194461769	 0.34623
C	 1.9325045373	-1.0804971035	-0.9220207641	-0.324571
C	 0.8103775445	-2.049274224	-1.1167779911	-0.310614
C	 0.2670650012	-0.0074393878	-2.5495770748	 0.121152
O	-0.485232851	 0.9008539298	-2.7990647224	-0.276168
H	 1.1767014137	 1.3828511009	 0.465668367	 0.102499
H	-0.1412284592	 1.9852617012	-0.5855442168	 0.144255
H	-0.4827291334	 1.5208659216	 1.1038428503	 0.129026
H	 2.6822138472	-0.9779540123	-1.6990242716	 0.126917
H	 2.289809043	-0.9160935771	 0.0876479943	 0.137335
H	 0.4013351722	-2.5371378421	-0.2403552723	 0.143816
H	 0.7674748526	-2.6292526494	-2.0320975556	 0.127595
H	 0.8579231175	-0.5124973162	-3.3506074738	 0.068928
123.7664	147.7808	183.1958	225.2198	287.9375	333.4089	354.7626	528.9413	548.2064	775.5072	800.2052	826.3877	890.2793	959.5759	983.9201	1038.5085	1053.2939	1086.4786	1103.8048	1180.0034	1197.5401	1223.3253	1272.6919	1342.3291	1434.3758	1451.6292	1474.4669	1483.9266	1490.6578	1515.4225	1820.9295	2849.162	3003.824	3091.538	3132.8062	3139.8306	3143.3603	3227.6383	3242.0065
COC1(CC1)C=O	COC1(CC1)C=O	
InChI=1S/C5H8O2/c1-7-5(4-6)2-3-5/h4H,2-3H2,1H3	InChI=1S/C5H8O2/c1-7-5(4-6)2-3-5/h4H,2-3H2,1H3
