18
gdb 3097	3.83871	1.99255	1.66276	2.6145	64.56	-0.213	0.0694	0.2823	831.8532	0.158394	-326.934229	-326.925641	-326.924697	-326.967046	30.324	
C	-0.0771304354	 1.5487992304	 0.6545414915	-0.416224
C	 0.0494579369	 0.0895111001	 0.2646444488	-0.008601
C	 0.3869328395	-0.3843227138	-1.1163433762	 0.007625
C	 0.6524208007	 0.5544446371	-2.2661489426	-0.104077
O	 1.5574047903	-0.1033841771	-3.1470652063	-0.42075
N	 1.3227393002	-0.5787418358	-0.008685151	-0.095487
C	 2.5818256173	 0.1499842037	 0.0287966608	-0.310995
H	 0.5681250824	 2.2159013586	 0.0811882541	 0.119745
H	-1.1102855639	 1.8837527575	 0.5121258088	 0.122416
H	 0.1660336622	 1.6818301857	 1.7146601027	 0.124273
H	-0.6324746839	-0.5450950242	 0.8321391023	 0.086512
H	-0.0632137217	-1.3164165933	-1.4589816479	 0.090336
H	-0.3040812639	 0.7712029144	-2.7691644841	 0.089626
H	 1.064284812	 1.5133178076	-1.9259884397	 0.083542
H	 1.686908464	 0.458925514	-3.9167206838	 0.286043
H	 2.5316873441	 1.2142981375	-0.2423450178	 0.093325
H	 2.9935484333	 0.0847742668	 1.041305581	 0.116833
H	 3.2800087158	-0.3348595692	-0.6591986809	 0.13586
75.8055	116.4063	151.4272	179.6916	235.307	264.6962	302.8143	320.0878	473.2232	518.0048	550.7578	736.3939	767.0899	835.0434	980.6345	1025.171	1047.9343	1063.9394	1079.2814	1132.4043	1156.4489	1172.5855	1180.7337	1200.0487	1249.219	1262.7087	1353.7047	1378.969	1410.0583	1424.261	1458.5193	1468.8113	1483.6689	1491.605	1504.8219	1506.3838	1522.889	2970.9957	2992.9271	3027.1498	3038.226	3067.4506	3085.1443	3090.9448	3101.6598	3110.4236	3136.2143	3824.2768
CC1C(CO)N1C	C[C@H]1[C@@H](CO)N1C	
InChI=1S/C5H11NO/c1-4-5(3-7)6(4)2/h4-5,7H,3H2,1-2H3	InChI=1S/C5H11NO/c1-4-5(3-7)6(4)2/h4-5,7H,3H2,1-2H3/t4-,5+,6?/m0/s1
