14
gdb 2974	3.62431	2.49777	1.73241	4.0639	57.11	-0.2826	0.0301	0.3127	735.4776	0.112773	-324.568345	-324.561138	-324.560194	-324.599765	25.223	
C	-0.1631714417	 1.5228608379	 0.2251637753	-0.39003
C	 0.040363455	 0.0128021899	-0.0193353315	-0.176569
C	 0.821711191	-0.589449258	 1.065290553	 0.289315
N	 1.4489351812	-1.0624774386	 1.9126097212	-0.332017
C	-1.302847207	-0.6856236195	-0.2093034812	 0.095366
C	-1.6317157488	-2.0088895262	 0.3300462327	-0.1883
O	-2.1263662788	-0.8093073926	 0.9409320961	-0.226254
H	 0.7952577568	 2.0334729101	 0.3405758969	 0.139841
H	-0.6938189936	 1.9653340679	-0.6226949016	 0.12686
H	-0.7571315903	 1.6790415956	 1.1283954585	 0.157993
H	 0.6162295445	-0.1247347513	-0.9444335416	 0.132339
H	-1.8259358462	-0.3469435946	-1.105793147	 0.103133
H	-2.3811828685	-2.6175220577	-0.1727286455	 0.122395
H	-0.8918146436	-2.5515473929	 0.9137378946	 0.145928
79.0624	149.7493	211.307	227.1334	253.8522	382.5714	440.5964	575.6464	651.9977	734.7132	848.4099	881.3664	952.7382	1010.9022	1020.6426	1078.17	1113.6751	1146.3231	1168.886	1180.5636	1292.6229	1303.0214	1345.861	1406.1301	1429.5869	1492.9574	1501.4466	1527.3415	2360.8207	3028.2373	3052.336	3091.5977	3098.859	3128.6414	3142.6274	3191.2878
CC(C#N)C1CO1	C[C@@H](C#N)[C@H]1CO1	
InChI=1S/C5H7NO/c1-4(2-6)5-3-7-5/h4-5H,3H2,1H3	InChI=1S/C5H7NO/c1-4(2-6)5-3-7-5/h4-5H,3H2,1H3/t4-,5+/m0/s1
