14
gdb 3127	5.47241	2.28743	1.89118	2.8079	58.94	-0.2475	-0.033	0.2145	682.5521	0.113671	-324.538764	-324.532538	-324.531594	-324.568849	22.952	
O	-0.1217669104	 0.0038553103	 0.0538618303	-0.260399
C	 0.0124660345	 1.1888265632	-0.1349425948	 0.0767
C	 1.2818598982	 1.9128910418	 0.055532261	 0.259997
C	 1.3309569735	 3.3697357607	 0.3568123377	-0.270444
N	 1.7410476894	 2.967108524	-0.9811530145	-0.158938
C	 3.1326672057	 2.3918930294	-0.8327596878	-0.14746
C	 2.6652820255	 1.2830366083	 0.1446309387	-0.317415
H	-0.8282544461	 1.829493077	-0.4844104502	 0.07851
H	 0.3899931667	 3.9123391349	 0.3710760226	 0.132072
H	 2.0745162451	 3.7240526019	 1.0692517066	 0.12196
H	 3.4782525859	 2.0186534324	-1.7974287569	 0.124105
H	 3.8520662221	 3.1224426383	-0.4494622353	 0.112387
H	 3.1196553662	 1.2496341331	 1.137869372	 0.111686
H	 2.6906689336	 0.2837559446	-0.2907823592	 0.137239
113.6605	203.2871	237.3147	346.6418	453.438	492.9291	695.7253	745.2455	778.7292	787.5169	874.478	942.9839	968.0411	989.2005	1026.0742	1095.7247	1102.6213	1132.5415	1192.4277	1221.1048	1248.7809	1275.404	1316.7527	1361.8964	1428.5845	1489.2866	1490.9124	1514.2195	1808.2921	2882.9088	3054.9211	3072.7404	3096.4509	3121.8607	3141.2022	3191.6929
O=CC12CN1CC2	O=C[C@]12CN1CC2	
InChI=1S/C5H7NO/c7-4-5-1-2-6(5)3-5/h4H,1-3H2	InChI=1S/C5H7NO/c7-4-5-1-2-6(5)3-5/h4H,1-3H2/t5-,6?/m0/s1
