16
gdb 1761	4.43403	1.91736	1.70847	4.334	65.73	-0.2781	0.0388	0.317	801.1248	0.135987	-288.654408	-288.646651	-288.645707	-288.685864	28.097	
C	-0.0749689649	 1.529284092	-0.0661031307	-0.417319
C	 0.033702307	 0.0230922898	 0.0126175036	-0.016179
C	 1.3300245284	-0.6972331811	-0.217293559	-0.313543
C	 0.724027622	-0.6848268599	 1.1826968839	 0.159937
C	 1.406848969	 0.0867540101	 2.3023821582	-0.460076
C	 0.1015677089	-1.9119151831	 1.6171633974	 0.239388
N	-0.3991354906	-2.8915696501	 1.9766104864	-0.349498
H	 0.8430494798	 2.0287468969	 0.253602139	 0.121664
H	-0.2694349664	 1.835290529	-1.0994669019	 0.130464
H	-0.8972662637	 1.9035881258	 0.5523986521	 0.130386
H	-0.8478751993	-0.4994192365	-0.3471778627	 0.112752
H	 1.3257383785	-1.6294103029	-0.7694539566	 0.136556
H	 2.227971812	-0.1004765387	-0.3433544394	 0.122337
H	 1.8941571854	 0.9851769526	 1.919032065	 0.12462
H	 0.6872787872	 0.3881220064	 3.0695216228	 0.138258
H	 2.1717113768	-0.5318047604	 2.7809758519	 0.140251
142.8186	160.5912	174.9515	183.2132	265.7268	311.6987	386.0389	437.6989	566.3029	579.7677	656.5482	772.1076	872.4876	896.4573	943.4702	980.1707	1025.327	1068.3029	1108.4114	1125.9591	1133.3661	1195.4923	1275.4365	1302.6653	1402.2576	1420.9868	1424.6909	1482.261	1486.2078	1493.4604	1497.2805	1510.3977	2345.986	3038.2038	3047.5936	3099.1747	3111.9853	3114.5862	3132.9088	3136.2032	3155.4632	3226.8439
CC1CC1(C)C#N	C[C@H]1C[C@]1(C)C#N	
InChI=1S/C6H9N/c1-5-3-6(5,2)4-7/h5H,3H2,1-2H3	InChI=1S/C6H9N/c1-5-3-6(5,2)4-7/h5H,3H2,1-2H3/t5-,6+/m0/s1
