13
gdb 574	10.97625	1.97735	1.8089	4.0027	53.78	-0.3029	0.0346	0.3375	669.5084	0.108659	-249.358446	-249.352356	-249.351412	-249.388285	21.499	
N	-0.0115818396	-1.0640893054	-0.3788893615	-0.305973
C	-0.0065087576	 0.0561745797	-0.0959462406	 0.262625
C	 0.0177593959	 1.4751842402	 0.2667218751	-0.356918
C	 1.4071374769	 2.0837225478	 0.1599436267	 0.03482
C	 1.9050031816	 2.5998000195	-1.1636490107	-0.24788
C	 1.5475494309	 3.5671147641	-0.061424218	-0.278626
H	-0.6792100266	 2.010544022	-0.3887550209	 0.147713
H	-0.3719910869	 1.5764489939	 1.2868729257	 0.153254
H	 2.1424799984	 1.6137519431	 0.8052434963	 0.106512
H	 2.9510198311	 2.4559104469	-1.4078374389	 0.124277
H	 1.2381674736	 2.5340544371	-2.0170531089	 0.121395
H	 0.6409787537	 4.1528351788	-0.1747267304	 0.116352
H	 2.3481130086	 4.0863825221	 0.4527933461	 0.122449
79.9628	153.4341	339.9076	342.8242	394.7815	536.467	768.366	800.4303	841.7631	894.3925	915.4618	980.6405	1003.2436	1062.3072	1084.4313	1136.6752	1152.4143	1196.523	1229.2805	1263.2047	1319.9493	1409.9961	1461.1544	1473.3399	1508.1986	2362.5153	3035.8272	3072.8229	3133.5703	3139.2755	3160.909	3213.461	3228.4139
N#CCC1CC1	N#CCC1CC1	
InChI=1S/C5H7N/c6-4-3-5-1-2-5/h5H,1-3H2	InChI=1S/C5H7N/c6-4-3-5-1-2-5/h5H,1-3H2
