17
gdb 2017	5.35352	2.03795	1.95908	1.3849	64.86	-0.2638	0.0744	0.3382	733.8702	0.149398	-309.662433	-309.655798	-309.654854	-309.692957	25.419	
O	-0.0897997497	 1.4101008714	 0.0097713316	-0.421438
C	-0.0349496082	-0.0102913072	 0.0026905517	-0.221213
C	-1.4444138153	-0.5282032825	 0.012753652	 0.377859
C	-2.5541327614	-0.2655347036	-1.0517686651	-0.240035
C	-3.2099327159	-1.175162449	 0.0256082861	-0.043341
C	-1.9006927578	-2.0172154076	 0.011456586	-0.265772
C	-2.5357394974	-0.2730324922	 1.0979200751	-0.239976
H	 0.8116363096	 1.7446643575	 0.0029975545	 0.287998
H	 0.4881096817	-0.3872849379	-0.8919748446	 0.084197
H	 0.5037899052	-0.3955598471	 0.8844366604	 0.084192
H	-2.9225059645	 0.7602548917	-1.1252393709	 0.097245
H	-2.3964881622	-0.7092496646	-2.0396018449	 0.082005
H	-4.2323965379	-1.5540515355	 0.0330143649	 0.06811
H	-1.6947596492	-2.5920303326	-0.8966602962	 0.085446
H	-1.6792320269	-2.598348855	 0.9118639956	 0.08545
H	-2.3612443726	-0.7235978283	 2.0797993228	 0.08201
H	-2.9026982173	 0.7522107525	 1.184810941	 0.097261
90.1515	176.58	236.992	316.4615	417.4998	541.0033	546.7944	657.3735	773.6299	804.829	885.694	910.7888	953.9523	962.8505	970.2688	993.9959	1023.0769	1069.3316	1097.9171	1104.066	1139.0791	1139.1833	1153.418	1174.7322	1225.6455	1229.108	1230.3652	1261.527	1283.4162	1328.9527	1464.847	1498.2714	1498.4633	1512.1551	1556.6358	2955.2437	2983.0304	3038.9253	3045.0649	3051.4105	3103.2029	3106.5148	3115.401	3119.8051	3830.3818
OCC12CC(C1)C2	OC[C@@]12C[C@@H](C1)C2	
InChI=1S/C6H10O/c7-4-6-1-5(2-6)3-6/h5,7H,1-4H2	InChI=1S/C6H10O/c7-4-6-1-5(2-6)3-6/h5,7H,1-4H2/t5-,6-
