10
gdb 4254	4.16569	2.14072	1.41405	1.5438	52.04	-0.3025	-0.0744	0.2281	767.6896	0.061291	-450.648187	-450.642158	-450.641214	-450.679023	21.307	
N	-0.072655121	 1.2972893373	 0.2702868763	-0.482543
C	-0.0885035718	 0.0741683811	-0.0093008524	 0.449003
O	 1.0900125861	-0.5521204552	-0.494418161	-0.252724
C	 1.1653803472	-1.8550940764	-0.8198507329	 0.499184
O	 2.14870073	-2.3740552747	-1.2239521131	-0.316879
O	 0.0007232332	-2.5790095456	-0.6535062415	-0.206591
C	-1.1072797485	-1.9449203853	-0.1868500423	 0.144937
N	-1.2117027831	-0.7236364509	 0.1277429303	-0.260033
H	 0.8487636348	 1.6989508098	 0.0985571661	 0.250723
H	-1.940371647	-2.6357840002	-0.1082407795	 0.174924
83.834	124.2385	391.5553	405.9827	510.9789	570.356	585.3106	751.1036	765.2188	767.5079	897.0609	936.6971	942.056	983.8169	999.8861	1095.4865	1207.375	1314.6418	1412.7499	1724.6683	1773.034	1937.5744	3209.6507	3512.8338
N=C1OC(=O)OC=N1	[NH]C1=N[CH]OC(=O)O1	
InChI=1S/C3H2N2O3/c4-2-5-1-7-3(6)8-2/h1,4H	InChI=1S/C3H2N2O3/c4-2-5-1-7-3(6)8-2/h1,4H
