17
gdb 2469	4.20324	2.60118	2.41753	1.4434	62.94	-0.2569	0.0748	0.3318	658.3646	0.150618	-309.718089	-309.711866	-309.710922	-309.747687	25.05	
O	-0.5872501824	 1.1474119441	 0.7800718204	-0.426203
C	-0.0376617958	 0.0428823669	 0.0584532802	 0.095429
C	 0.8679576082	-0.8543787902	 0.9393622076	-0.236963
C	-0.0473674516	-1.9181206886	 1.5274623415	-0.023696
C	-1.3437275207	-1.4652714376	 2.1564392732	-0.283588
C	-1.3283036925	-1.9276745013	 0.7194350223	-0.026056
C	-1.2115604627	-0.8647517057	-0.3644869491	-0.210189
H	 0.1463986921	 1.6595667385	 1.1351915437	 0.27872
H	 0.5103980851	 0.4193912683	-0.8165611941	 0.064453
H	 1.6323282495	-1.3319299451	 0.3137810585	 0.096506
H	 1.398027683	-0.2590111502	 1.6936018754	 0.085565
H	 0.4008526679	-2.841090713	 1.8789977264	 0.075489
H	-1.7944912669	-2.1337434094	 2.8826152398	 0.10014
H	-1.4846884896	-0.4097173944	 2.3562457789	 0.129156
H	-1.8264862121	-2.8585747704	 0.4716820686	 0.075148
H	-2.1160962874	-0.2640602635	-0.5001692033	 0.111359
H	-0.9819340741	-1.3414888584	-1.3243055602	 0.09473
172.1168	265.6021	314.5018	390.5759	405.8934	420.2011	631.5494	758.9594	761.0256	818.6073	827.6625	876.778	879.4183	953.0483	969.0843	977.1336	1040.1708	1062.0508	1079.9425	1092.2075	1109.3256	1130.5569	1185.4636	1208.5214	1213.986	1256.0425	1303.1244	1325.925	1331.1649	1374.2497	1395.0346	1423.7564	1474.0082	1481.084	1495.5735	2991.9114	3021.3277	3042.5511	3057.096	3089.0233	3134.3724	3160.1835	3170.2177	3227.6919	3814.7552
OC1CC2CC2C1	O[C@H]1C[C@H]2C[C@H]2C1	
InChI=1S/C6H10O/c7-6-2-4-1-5(4)3-6/h4-7H,1-3H2	InChI=1S/C6H10O/c7-6-2-4-1-5(4)3-6/h4-7H,1-3H2/t4-,5+,6+
