14
gdb 2650	6.01897	1.18047	1.02487	3.9101	64.08	-0.2602	0.02	0.2803	1112.7914	0.111412	-324.543443	-324.535004	-324.534059	-324.578474	27.049	
C	-0.270271251	 0.9891318859	 0.4054355148	-0.497067
C	-0.0734398883	-0.3714717134	-0.0707179778	 0.040718
C	 0.087931725	-1.4951253961	-0.4715547942	 0.095194
C	 0.267797056	-2.8611154518	-0.9497890291	-0.236482
O	-0.9493550879	-3.617595653	-0.9896278127	-0.171305
C	-1.4564653038	-3.9788233772	 0.208231004	 0.137162
N	-2.537401765	-4.6266259653	 0.2609146361	-0.437634
H	 0.2659759555	 1.166665566	 1.3437899059	 0.151699
H	 0.085175437	 1.7207222933	-0.3280591319	 0.15491
H	-1.3321956528	 1.1887488108	 0.5849203451	 0.1586
H	 0.6301402215	-2.8663856033	-1.9815174419	 0.151784
H	 1.0143986865	-3.3875587021	-0.3386537566	 0.132706
H	-0.8424146091	-3.6592014197	 1.0607525983	 0.091013
H	-2.7716512635	-4.8308875341	 1.2302308601	 0.228701
20.2414	56.1552	80.0814	150.3795	198.5285	302.7253	353.146	376.277	489.1953	656.6314	770.5634	819.2284	951.5497	1026.9407	1039.8177	1050.9264	1056.7474	1113.7812	1170.506	1243.6139	1317.6838	1393.5077	1414.1111	1427.8071	1475.216	1477.5018	1485.9681	1748.815	2372.4978	3007.5919	3030.7211	3031.0408	3088.821	3093.4142	3094.622	3517.9019
CC#CCOC=N	CC#CCO[CH][NH]	
InChI=1S/C5H7NO/c1-2-3-4-7-5-6/h5-6H,4H2,1H3	InChI=1S/C5H7NO/c1-2-3-4-7-5-6/h5-6H,4H2,1H3
