17
gdb 2442	4.03796	3.2745	2.61582	1.3591	63.12	-0.2449	0.0834	0.3284	612.2504	0.151704	-309.705971	-309.700363	-309.699418	-309.735032	22.743	
C	-0.0187376154	 1.5373544037	-0.041370056	-0.217855
C	 1.5285149171	 1.4328230313	 0.011425577	-0.027574
C	 1.3380261425	 0.1050677371	 0.8013135017	-0.219528
C	-0.0024773514	-0.0130695277	 0.0188561266	-0.027575
C	 0.2988254699	-0.5566838898	-1.3834474665	-0.064562
O	 1.5978375223	-0.183542368	-1.8268159258	-0.259186
C	 2.046831827	 1.0941596758	-1.3919314789	-0.064562
H	-0.4353037487	 1.9830997187	 0.8658670408	 0.093934
H	-0.470014324	 2.0106758873	-0.9201795387	 0.087077
H	 2.1002491552	 2.2511251561	 0.4558808024	 0.062309
H	 2.0822486047	-0.6836420929	 0.6680495442	 0.103045
H	 1.17132882	 0.287045803	 1.8655905482	 0.09498
H	-0.8498064028	-0.5349514654	 0.4702001237	 0.062309
H	 0.2905669387	-1.6527189834	-1.391119536	 0.103409
H	-0.4725575181	-0.2098346492	-2.0919908687	 0.085185
H	 1.7409752013	 1.8806576394	-2.1027353985	 0.085185
H	 3.1414957118	 1.0397418739	-1.4049560554	 0.103409
186.0988	300.3857	395.5875	408.5724	520.8889	602.5043	819.7614	826.2902	833.0294	872.8511	891.4582	918.7363	951.2552	966.1414	980.7984	1061.2567	1067.9267	1092.9737	1111.3694	1128.7472	1144.5115	1193.4708	1240.6382	1241.4544	1268.0464	1273.2081	1312.4019	1337.6207	1342.8637	1381.1371	1418.249	1475.7982	1502.5974	1504.8966	1516.8866	2956.0344	2963.3696	3036.4696	3051.9573	3054.3203	3060.8614	3078.2791	3080.7093	3097.8758	3120.1186
C1C2CC1COC2	C1[C@H]2C[C@@H]1COC2	
InChI=1S/C6H10O/c1-5-2-6(1)4-7-3-5/h5-6H,1-4H2	InChI=1S/C6H10O/c1-5-2-6(1)4-7-3-5/h5-6H,1-4H2/t5-,6+
