12
gdb 4611	5.80834	1.62812	1.27336	4.3771	62.13	-0.2162	-0.0803	0.1359	867.2704	0.084855	-414.696169	-414.689575	-414.68863	-414.726919	24.678	
N	 0.0278624256	 1.417574333	 0.1573098456	-0.574442
C	-0.0308547985	 0.0290377643	 0.0440282065	 0.277906
C	-1.1757164988	-0.6947966765	-4.0965*^-6	-0.002117
O	-1.161413995	-2.051496403	-0.0346229737	-0.196869
C	 0.0254111567	-2.7572229323	-0.0290592275	 0.391919
O	 0.0115275359	-3.9592113584	-0.0554737706	-0.338507
C	 1.2146837748	-1.8981078883	 0.0036666174	-0.112235
N	 1.1930355401	-0.6094841958	 0.038195874	-0.240048
H	 0.9077918075	 1.7825994117	-0.1809913752	 0.258876
H	-0.7601378284	 1.9138979893	-0.2334153254	 0.252027
H	-2.1798233974	-0.2914820931	-0.0067119058	 0.136234
H	 2.1721983076	-2.4128000708	-0.0052416989	 0.147256
96.9597	228.2823	341.0933	355.0058	369.9509	439.2322	534.4611	547.0418	622.7264	659.1475	775.5943	809.9983	812.522	826.7501	938.7886	948.439	1108.8581	1130.17	1239.1944	1326.6122	1350.338	1430.482	1582.7229	1637.1646	1694.0657	1831.9571	3170.6457	3219.1807	3558.3354	3661.4469
NC1=COC(=O)C=N1	Nc1coc(=O)cn1	
InChI=1S/C4H4N2O2/c5-3-2-8-4(7)1-6-3/h1-2H,5H2	InChI=1S/C4H4N2O2/c5-3-2-8-4(7)1-6-3/h1-2H,5H2
