15
gdb 4054	5.67004	1.2517	1.0842	0.9572	69.11	-0.2298	-0.0379	0.1919	1043.7428	0.118789	-399.768262	-399.760662	-399.759718	-399.800889	28.25	
O	-0.1129920732	 1.3448196546	-0.0214404878	-0.395554
N	 0.0186343637	-0.0546421961	 0.0143106507	-0.227511
C	-1.1208672011	-0.6335071641	 0.0381603092	 0.368032
C	-1.2521334415	-2.1458282262	 0.0536662441	-0.334322
C	-2.784142547	-2.4104809728	-0.0267785582	 0.091331
O	-3.2933865667	-3.2450178235	 1.0066204764	-0.427292
C	-3.3889682987	-1.0242128007	-0.0119291163	-0.118258
C	-2.4656681519	-0.0549268308	 0.0368581062	-0.139346
H	 0.8054561941	 1.6326494956	-0.0395697247	 0.307246
H	-0.7011666583	-2.6046177844	-0.7708230311	 0.129266
H	-0.8576509724	-2.5747475484	 0.9801618152	 0.126261
H	-3.0443906973	-2.9423635304	-0.9487762826	 0.102548
H	-3.1773058882	-2.7759268505	 1.8409901767	 0.277327
H	-4.4636343197	-0.8800240894	-0.0224668594	 0.113008
H	-2.6431424318	 1.0109267169	 0.0600942517	 0.127263
28.0984	205.0658	239.6452	264.3814	337.384	377.7684	381.5013	458.0225	512.9425	627.6409	699.3306	746.5514	827.0688	850.0928	863.3428	953.9393	976.4136	995.1961	1047.8633	1066.0156	1126.4249	1154.7445	1233.9099	1254.9577	1284.7457	1315.9438	1363.4502	1403.0945	1428.3285	1470.9524	1643.4583	1726.3652	3047.5341	3061.8569	3106.9914	3198.9938	3245.7906	3792.1236	3824.506
ON=C1CC(O)C=C1	ON=C1C[C@@H](O)C=C1	
InChI=1S/C5H7NO2/c7-5-2-1-4(3-5)6-8/h1-2,5,7-8H,3H2	InChI=1S/C5H7NO2/c7-5-2-1-4(3-5)6-8/h1-2,5,7-8H,3H2/t5-/m0/s1
