15
gdb 3494	7.06485	2.01166	1.91669	0.6381	67.65	-0.2535	0.0455	0.299	706.5503	0.125894	-271.296056	-271.290104	-271.28916	-271.32551	23.696	
C	-0.0760038893	-1.2488321399	-0.0960683937	-0.4474
C	-0.0258046024	-0.0487406275	-0.0254305344	 0.304765
C	 0.0072277194	 1.39786049	 0.0315383116	-0.156037
C	 0.0766079714	 2.130626906	 1.4196167119	-0.03733
C	 1.5549598833	 1.6578248668	 1.5323614452	-0.224937
C	 1.3839601394	 2.1540673977	 0.0673425336	-0.037314
C	 0.6060359233	 3.3704919305	 0.6446483285	-0.226969
H	-0.1166249198	-2.3081434244	-0.1555779939	 0.190598
H	-0.7203323762	 1.8285855663	-0.6643953914	 0.091509
H	-0.6911359505	 2.1062836096	 2.1935919554	 0.078217
H	 2.20642651	 2.2579770031	 2.1725908362	 0.090533
H	 1.7203970798	 0.5888301291	 1.6737762523	 0.111715
H	 2.1317541462	 2.1569002778	-0.7262928941	 0.078218
H	-0.0963955482	 3.873924193	-0.0257218001	 0.090929
H	 1.1927377537	 4.0867627919	 1.2242807228	 0.093503
166.8298	173.1014	422.1197	498.1705	506.0105	584.6095	614.013	638.6461	769.3888	807.3259	873.361	876.8106	903.0444	907.1915	1010.0368	1013.5015	1025.4929	1066.4296	1087.1017	1114.6122	1133.42	1137.4288	1194.2562	1210.1212	1240.3438	1245.9205	1256.9416	1373.6885	1498.9896	1535.3882	2229.4404	3049.2483	3053.5879	3064.1055	3107.1433	3112.2593	3120.8628	3136.0601	3503.8685
C#CC1C2CC1C2	C#C[C@H]1[C@H]2C[C@@H]1C2	
InChI=1S/C7H8/c1-2-7-5-3-6(7)4-5/h1,5-7H,3-4H2	InChI=1S/C7H8/c1-2-7-5-3-6(7)4-5/h1,5-7H,3-4H2/t5-,6+,7-
