19
gdb 2387	5.42719	1.99804	1.97557	0.0187	70.96	-0.2684	0.0879	0.3563	768.2713	0.173033	-273.764642	-273.757898	-273.756954	-273.79518	26.382	
C	-0.0350382491	 1.5499068945	-0.0991306274	-0.205319
C	 1.5118236838	 1.5031417776	 0.0229852409	-0.269252
C	 1.3846388737	 0.0668821717	 0.6068624498	 0.401592
C	-0.0489913877	 0.0022448777	 0.0289433494	-0.292792
C	 2.5009352096	-0.9791778611	 0.3765118207	-0.292802
C	 3.0042375104	-0.7163933188	 1.8220250823	-0.205313
C	 1.6291298494	-0.0685213875	 2.1371536018	-0.269284
H	-0.498247022	 2.034143918	 0.7649988452	 0.101603
H	-0.4565609546	 1.9878486659	-1.0068364195	 0.0935
H	 1.9950661254	 1.4943841118	-0.9598189455	 0.094429
H	 2.0003262493	 2.2606256564	 0.6431062155	 0.091667
H	-0.8199166385	-0.4542807789	 0.6570895014	 0.089678
H	-0.0659500557	-0.4869746262	-0.9510612998	 0.095698
H	 2.0898508436	-1.9885424658	 0.2659735519	 0.095694
H	 3.1939346241	-0.7952308794	-0.4500590688	 0.089684
H	 3.3039318126	-1.5801699631	 2.4199162934	 0.093506
H	 3.8153901941	 0.0166262222	 1.8438007821	 0.101603
H	 1.6190306146	 0.8478565438	 2.7347406377	 0.091676
H	 0.938047967	-0.7868022987	 2.5910086589	 0.09443
117.326	117.5746	257.3864	361.6092	362.3414	480.7818	663.0063	702.0514	762.3953	809.9792	850.4767	875.2091	899.0981	904.9247	935.363	935.4134	960.1066	979.7126	1011.5114	1082.5497	1169.7054	1175.9725	1176.2226	1204.5915	1205.7683	1245.584	1253.6625	1256.4382	1260.7373	1275.4012	1286.2351	1297.7697	1310.2323	1471.0215	1473.6829	1480.7495	1485.5388	1502.8561	1507.4163	3035.6084	3036.2589	3038.638	3043.1564	3058.1742	3058.8309	3084.1513	3084.7784	3086.6623	3090.8834	3113.364	3113.8598
C1CC2(C1)CCC2	C1CC2(C1)CCC2	
InChI=1S/C7H12/c1-3-7(4-1)5-2-6-7/h1-6H2	InChI=1S/C7H12/c1-3-7(4-1)5-2-6-7/h1-6H2
