12
gdb 2960	6.37932	1.73642	1.52659	4.1845	57.26	-0.2944	-0.0856	0.2088	778.0779	0.089699	-323.386306	-323.379583	-323.378639	-323.417599	23.19	
O	 0.0034949329	-0.0686596618	-0.058030771	-0.30052
C	-0.0577600642	 1.1391185527	-0.0203774799	 0.306674
C	 1.185608997	 1.9408184706	 0.0209359659	 0.21812
N	 2.1525640178	 2.5741015041	 0.0533700257	-0.301749
C	-1.3075712548	 1.9261782332	-0.0115506577	-0.120933
C	-2.4909503138	 1.3499047118	-0.7884170808	-0.246094
C	-2.5106664947	 1.3021779145	 0.6948642013	-0.246137
H	-1.1949036097	 3.0026163356	 0.0245129429	 0.119806
H	-3.1194726799	 2.0657591853	-1.3044764371	 0.134879
H	-2.2928899752	 0.426156694	-1.3195262603	 0.15054
H	-2.3260085964	 0.3460273704	 1.170566543	 0.150545
H	-3.1533136691	 1.9839144995	 1.238966658	 0.134868
51.7643	149.0472	231.4222	260.1141	318.192	466.7138	598.848	751.8338	752.4454	812.6776	819.6938	896.995	901.7056	1057.4968	1095.5156	1100.1602	1122.1132	1124.3159	1211.1738	1218.0536	1404.3105	1457.2067	1486.5715	1772.8614	2337.7583	3146.8734	3148.1249	3193.91	3235.5786	3250.0082
O=C(C#N)C1CC1	O=C(C#N)C1CC1	
InChI=1S/C5H5NO/c6-3-5(7)4-1-2-4/h4H,1-2H2	InChI=1S/C5H5NO/c6-3-5(7)4-1-2-4/h4H,1-2H2
