6
gdb 779	10.34972	4.18995	2.98252	1.0079	30.02	-0.3348	-0.088	0.2469	377.0208	0.025718	-373.17391	-373.16979	-373.168845	-373.201448	13.622	
O	 0.0024957938	-0.0348153442	 0.0028855672	-0.333615
C	-0.013512517	 1.1460053332	 0.0093742933	 0.587925
O	-1.1162131588	 1.9645379792	 0.0279551639	-0.214141
N	-0.6608489117	 3.2764220761	 0.0292293772	 0.086985
N	 0.5758330091	 3.2932732442	 0.0130647618	 0.086986
O	 1.0665936346	 1.9942817915	-0.0000183935	-0.214139
242.113	484.6846	648.6994	740.6808	758.3098	765.1775	922.9665	1000.6389	1048.1751	1155.3598	1553.1927	1969.0762
O=C1ON=NO1	O=c1onno1	
InChI=1S/CN2O3/c4-1-5-2-3-6-1	InChI=1S/CN2O3/c4-1-5-2-3-6-1
