16
gdb 3983	6.27445	0.83277	0.77594	4.0175	69.37	-0.2586	-0.006	0.2526	1396.4665	0.128485	-379.903682	-379.894511	-379.893567	-379.938544	31.433	
C	-0.0811556938	 1.5271390672	-0.0146277031	-0.475262
C	-0.0222686397	 0.0227433244	-0.0265762505	 0.347364
C	 0.0126909046	-0.7465297678	 1.2682245029	-0.271172
C	 1.3550581568	-0.5517471177	 2.0173192604	-0.336985
C	 1.3744981452	-1.2399808434	 3.3056313781	 0.25848
N	 1.3709789476	-1.7884653445	 4.3226967809	-0.301282
N	 0.0021222345	-0.6834393387	-1.0923318795	-0.15366
O	-0.0224465038	 0.1159444074	-2.2422761155	-0.395665
H	 0.8332383061	 1.9565731807	-0.4382801042	 0.150707
H	-0.9048428223	 1.874732956	-0.6452102012	 0.15667
H	-0.2171420457	 1.9167498337	 0.9965099877	 0.120932
H	-0.8052134541	-0.4155363719	 1.9187501786	 0.12937
H	-0.1339113815	-1.807502055	 1.0566135784	 0.141307
H	 2.178720855	-0.9293706508	 1.4019317256	 0.164044
H	 1.5498678247	 0.5124017294	 2.1917074473	 0.155003
H	-0.0293616536	-0.5403478089	-2.947231056	 0.31015
60.0517	62.9212	86.4856	129.4144	204.5444	292.4102	347.2109	373.6917	409.3109	428.6738	502.1289	559.6393	661.6061	772.091	825.1455	944.6098	981.5253	989.183	1010.4375	1049.758	1077.1398	1192.4143	1267.8136	1286.1288	1312.1691	1367.0638	1401.9475	1402.6759	1466.7274	1475.2871	1484.0178	1486.3875	1728.7589	2363.1835	3040.9052	3043.6875	3050.7801	3085.9613	3101.7246	3122.6004	3131.0267	3819.0723
CC(CCC#N)=NO	CC(=NO)CCC#N	
InChI=1S/C5H8N2O/c1-5(7-8)3-2-4-6/h8H,2-3H2,1H3	InChI=1S/C5H8N2O/c1-5(7-8)3-2-4-6/h8H,2-3H2,1H3
