12
gdb 979	3.70737	3.52573	1.82466	1.8025	51.68	-0.1938	0.0369	0.2308	640.9807	0.09253	-356.725069	-356.718674	-356.71773	-356.755109	23.537	
N	 0.2282703855	 1.4557044081	 0.0210202165	-0.61738
C	 0.0254393156	 0.0631146651	-0.0144960073	 0.150248
C	-1.068180899	-0.769955812	-0.0320929856	 0.30346
O	-2.3667681215	-0.3834561841	-0.0172199262	-0.443613
N	-0.7072611206	-2.0832758504	-0.0675738187	-0.339679
C	 0.6153253905	-2.0768140334	-0.0721988252	 0.005001
N	 1.1043315383	-0.81733831	-0.0414575892	-0.247479
H	-0.1811837164	 1.8747849155	 0.8497729443	 0.247734
H	-0.1865847008	 1.9172190378	-0.7821094543	 0.247723
H	-2.8861338446	-1.1962432115	-0.0363709581	 0.298509
H	 1.2465973034	-2.9516749329	-0.0972392405	 0.129212
H	 2.0678963397	-0.526833702	-0.0375163957	 0.266264
129.6802	244.3553	267.8932	331.4915	370.4787	486.3899	528.4784	664.4712	666.4877	735.2808	760.885	781.3107	812.5198	954.2318	1098.6741	1131.0687	1217.5175	1231.6344	1299.9161	1354.7546	1402.0561	1493.7461	1513.2325	1660.9882	1693.0898	3255.9819	3498.4687	3558.4263	3666.46	3805.8796
NC1=C(O)N=CN1	Nc1c(O)nc[nH]1	
InChI=1S/C3H5N3O/c4-2-3(7)6-1-5-2/h1,7H,4H2,(H,5,6)	InChI=1S/C3H5N3O/c4-2-3(7)6-1-5-2/h1,7H,4H2,(H,5,6)
