16
gdb 2713	4.44897	1.56818	1.23931	3.7958	60.07	-0.254	0.0329	0.2869	965.0171	0.135377	-362.894239	-362.885974	-362.88503	-362.927684	27.588	
C	 0.3161553485	 0.8948143249	 0.3979308886	-0.229906
O	-0.0057539599	-0.4469977913	 0.1090661375	-0.232663
C	-1.3925386571	-0.6905224734	 0.0642603224	-0.053764
C	-1.6112809754	-2.1872327409	-0.0750351183	-0.098941
O	-1.2837558978	-2.8888241858	 1.1182159541	-0.183685
C	 0.0134200234	-3.2179839537	 1.3021104811	 0.135337
N	 0.3773707887	-3.7269606264	 2.3981163045	-0.446145
H	 1.4055822008	 0.970941469	 0.4194668599	 0.131863
H	-0.0739101541	 1.5806865139	-0.3701493221	 0.106801
H	-0.0832663121	 1.2065155499	 1.3748188543	 0.114599
H	-1.8848000011	-0.3334219075	 0.982846385	 0.106817
H	-1.8577325752	-0.1715657237	-0.7919691078	 0.090025
H	-2.6688459493	-2.3901059625	-0.2634451297	 0.122671
H	-1.0272456053	-2.5682276936	-0.9231339446	 0.115457
H	 0.645432892	-3.0091799305	 0.4313786635	 0.09609
H	 1.3718151338	-3.9413994984	 2.3620552015	 0.225445
58.5573	103.5893	105.5061	149.281	224.6902	255.8505	356.2988	368.3212	526.3471	618.107	817.0663	851.9276	913.0797	1003.655	1035.8593	1049.0617	1122.6156	1146.95	1171.7217	1186.2158	1225.6437	1256.3923	1279.9183	1343.9546	1399.8326	1419.7997	1428.902	1478.3438	1485.7889	1488.6204	1497.5706	1520.4931	1744.467	2955.7176	2978.3686	3000.4099	3025.824	3029.7151	3058.2324	3104.8633	3120.3776	3515.8174
COCCOC=N	COCCO[CH][NH]	
InChI=1S/C4H9NO2/c1-6-2-3-7-4-5/h4-5H,2-3H2,1H3	InChI=1S/C4H9NO2/c1-6-2-3-7-4-5/h4-5H,2-3H2,1H3
