12
gdb 1823	6.47269	2.16529	1.65601	1.3644	51.9	-0.264	-0.0446	0.2194	691.9104	0.090172	-360.54737	-360.541252	-360.540308	-360.578038	21.79	
N	-0.0369716851	 1.231597573	 0.3717562002	-0.523998
C	-0.0340456906	 0.0358755935	-0.0221874946	 0.415115
C	-1.2510796523	-0.837164211	-0.2029104966	-0.429605
C	-0.6954370352	-2.1659043037	-0.6889448739	 0.377596
O	-1.2974721727	-3.1665021865	-0.9653049267	-0.289111
C	 0.8236627098	-1.9959041825	-0.766350673	-0.190212
O	 1.1053723869	-0.6626225991	-0.3521067367	-0.237112
H	 0.9152765711	 1.600523022	 0.4097090269	 0.228064
H	-1.8036263858	-0.9616902834	 0.7329235979	 0.174757
H	-1.9493297517	-0.4140798698	-0.9309623968	 0.174756
H	 1.3280005256	-2.7114313894	-0.1068516007	 0.149878
H	 1.1801757601	-2.1572124232	-1.7901480258	 0.149872
53.0527	135.6503	376.1653	440.1546	512.4826	519.9729	583.717	678.4311	800.2135	819.8612	851.7024	898.1806	1022.5477	1026.1741	1105.9168	1145.018	1164.7432	1213.9352	1239.5071	1286.472	1369.9191	1417.3141	1484.4671	1786.9419	1872.8428	3038.7075	3073.2051	3081.5339	3111.6703	3470.6215
N=C1CC(=O)CO1	[NH][C]1CC(=O)CO1	
InChI=1S/C4H5NO2/c5-4-1-3(6)2-7-4/h5H,1-2H2	InChI=1S/C4H5NO2/c5-4-1-3(6)2-7-4/h5H,1-2H2
