19
gdb 2176	3.40886	2.71166	1.73957	1.5735	66.26	-0.2442	0.0755	0.3197	785.7238	0.172695	-310.929561	-310.922046	-310.921102	-310.961572	27.987	
C	 0.1649583915	 1.5943445555	-0.1802040094	-0.401364
C	 0.0215998623	 0.0822399148	 0.021375466	-0.015398
C	 0.6172626636	-0.7175769556	-1.1746955717	-0.081606
O	 1.5374886132	-1.6664417897	-0.6493025599	-0.24645
C	 2.0225879568	-1.1322440938	 0.5687592207	-0.087594
C	 0.7924694654	-0.5115379486	 1.2429736877	 0.028298
C	 1.1092789697	 0.4371254311	 2.3973827471	-0.415335
H	 1.2144743426	 1.8921645326	-0.2826617809	 0.116709
H	-0.3517050667	 1.9069332746	-1.0941427401	 0.114153
H	-0.2662352247	 2.1597294498	 0.6512576995	 0.11505
H	-1.0437543155	-0.145513447	 0.1264901791	 0.074603
H	-0.1351795433	-1.2680820191	-1.7474231943	 0.1032
H	 1.1331462058	-0.0321076219	-1.8666018227	 0.084689
H	 2.4768298919	-1.9474116438	 1.1392037888	 0.10469
H	 2.7974493496	-0.3646224162	 0.3888762769	 0.078203
H	 0.1937964701	-1.3429562556	 1.6334608472	 0.078941
H	 1.7426560791	 1.2715997961	 2.0805236213	 0.117988
H	 0.1976945929	 0.8573045317	 2.8343849301	 0.11695
H	 1.6391648757	-0.0936804149	 3.1956529448	 0.114273
31.5941	215.5006	235.3348	273.8646	278.2341	332.7707	371.6689	500.0039	589.1649	665.7419	760.5028	881.8982	910.8984	937.715	957.8935	975.8271	1030.2848	1043.8685	1095.7382	1111.2951	1155.1355	1169.2263	1180.0037	1234.605	1265.5493	1295.2211	1326.0049	1345.3432	1365.1314	1381.1663	1404.4408	1410.8819	1423.3756	1491.8651	1494.6434	1505.5661	1509.1949	1512.0694	1523.4502	2938.5691	2969.8073	3025.9232	3029.4822	3035.0279	3048.0894	3075.2033	3085.8643	3093.2684	3095.8184	3105.9683	3108.561
CC1COCC1C	C[C@H]1COC[C@H]1C	
InChI=1S/C6H12O/c1-5-3-7-4-6(5)2/h5-6H,3-4H2,1-2H3	InChI=1S/C6H12O/c1-5-3-7-4-6(5)2/h5-6H,3-4H2,1-2H3/t5-,6+
