14
gdb 2052	4.94479	2.62705	1.75218	3.6605	59.44	-0.2391	0.0138	0.2529	688.8863	0.115751	-324.624318	-324.618091	-324.617147	-324.65477	22.853	
O	 0.0021122204	-0.0501135388	 0.2671672672	-0.378947
C	-0.0245877122	 1.1539855527	 0.0900630648	 0.395005
C	-1.3369949406	 1.897994891	-0.1213243784	-0.365392
C	-1.2173908556	 3.378557384	-0.326441838	-0.059231
C	-0.053263223	 4.0179885934	-0.3267459638	-0.04978
C	 1.2614815021	 3.3320820619	-0.1235744541	-0.195397
N	 1.1179951372	 1.9007685242	 0.0708827044	-0.312989
H	-1.8394995673	 1.420598425	-0.9725801648	 0.142101
H	-1.9744646169	 1.6690930493	 0.7425809026	 0.142107
H	-2.1409300589	 3.9308930972	-0.4796907608	 0.097377
H	-0.0031154424	 5.0918356507	-0.4782779225	 0.098477
H	 1.9138708096	 3.5277760297	-0.9894798087	 0.120407
H	 1.776714825	 3.7769937565	 0.7426106473	 0.120385
H	 1.9560607225	 1.3566540333	 0.2170927847	 0.245876
79.4715	118.7764	384.5601	450.2473	500.7244	511.3834	559.1954	642.742	699.4742	770.2263	913.454	947.2251	970.4905	972.4144	1008.0974	1028.8952	1124.9384	1181.9666	1207.7445	1247.6844	1325.2913	1354.4483	1390.5857	1425.819	1451.4449	1489.7742	1526.7961	1749.0653	1790.8543	2973.4579	2983.247	3029.1267	3050.6646	3155.9567	3184.2044	3608.4363
O=C1CC=CCN1	O=C1CC=CCN1	
InChI=1S/C5H7NO/c7-5-3-1-2-4-6-5/h1-2H,3-4H2,(H,6,7)	InChI=1S/C5H7NO/c7-5-3-1-2-4-6-5/h1-2H,3-4H2,(H,6,7)
