14
gdb 4589	5.75745	1.53198	1.21145	2.9834	68.81	-0.1947	-0.0149	0.1798	929.9678	0.109523	-378.784242	-378.777417	-378.776473	-378.814822	26.725	
N	-0.0140411924	 1.3982714176	-0.0829034879	-0.570002
C	 0.0233000708	 0.0069010779	-0.0381173413	 0.36075
N	-1.1567116106	-0.6195250345	-0.0048046836	-0.321083
C	-1.174791278	-1.9520547615	-0.0260857359	-0.057156
C	-0.0252917669	-2.7371492029	-0.0694619638	 0.322483
O	-0.167768743	-4.0970228804	-0.0797063008	-0.447317
C	 1.2056504572	-2.0815581278	-0.0953620272	-0.206761
C	 1.2366064353	-0.6961001593	-0.0837448218	-0.163017
H	 0.7662924413	 1.8693712271	 0.3500189629	 0.24422
H	-0.9069487172	 1.7664159534	 0.2137712814	 0.250476
H	-2.1478376085	-2.4361310049	-0.0014016575	 0.111544
H	 0.7030978307	-4.5048341171	-0.1153725252	 0.295028
H	 2.1320024339	-2.6499356655	-0.1273228007	 0.091036
H	 2.1813852275	-0.1639988721	-0.1156106486	 0.089799
144.7014	285.1639	323.0041	342.6362	369.3723	434.8197	439.2651	496.5514	529.1576	627.3213	656.8624	773.1673	791.2363	837.236	877.8391	937.756	944.822	1027.7906	1083.8731	1159.4687	1194.1068	1295.1103	1328.1987	1338.3655	1342.9068	1475.4943	1530.4173	1623.2147	1633.5363	1665.6646	3155.206	3162.3092	3185.4119	3562.981	3671.2745	3828.6661
NC1=NC=C(O)C=C1	Nc1ncc(O)cc1	
InChI=1S/C5H6N2O/c6-5-2-1-4(8)3-7-5/h1-3,8H,(H2,6,7)	InChI=1S/C5H6N2O/c6-5-2-1-4(8)3-7-5/h1-3,8H,(H2,6,7)
