14
gdb 4444	3.59914	1.88426	1.24973	3.6793	62.61	-0.1779	0.0516	0.2294	912.1272	0.109143	-412.055091	-412.047561	-412.046617	-412.086404	28.776	
N	 0.1850146257	 1.4281039976	 0.0894868758	-0.606353
C	 0.0288786575	 0.0477680103	-0.004072739	 0.294961
C	-1.0687019114	-0.7216774887	 0.0038210586	 0.19292
N	-2.4121860788	-0.3784688005	 0.0101340866	-0.603431
O	-0.6601313416	-2.083983078	-0.0000834053	-0.246597
C	 0.709659907	-2.1156206532	-0.0042449299	 0.455289
N	 1.4660778512	-3.1321463139	 0.0467287697	-0.604559
N	 1.1385059569	-0.7959003199	-0.0764826597	-0.375687
H	 0.7328622871	 1.8093739897	-0.6760229355	 0.249986
H	-0.7240690881	 1.8764079157	 0.1052477535	 0.26026
H	-2.9004471051	-0.6894669597	 0.8452199065	 0.247006
H	-2.9171791141	-0.7314004605	-0.7978637246	 0.24625
H	 0.9112470668	-3.9824299156	 0.1021150228	 0.219894
H	 2.0615876667	-0.5434241832	 0.2345282707	 0.270062
151.5102	216.9751	258.9713	289.6194	306.5012	335.352	367.3343	425.1455	552.163	619.367	645.1299	668.2978	720.0437	757.9854	790.8367	829.4087	847.5986	969.9058	1018.2214	1079.8782	1151.4866	1217.3924	1296.4188	1316.82	1374.4406	1480.584	1638.1259	1663.4296	1774.6342	1830.4155	3478.1768	3497.9377	3535.1733	3535.5745	3599.0038	3668.209
NC1=C(N)OC(=N)N1	NC1=C(N)O[C@@H]([NH])N1	
InChI=1S/C3H6N4O/c4-1-2(5)8-3(6)7-1/h4-5H2,(H2,6,7)	InChI=1S/C3H7N4O/c4-1-2(5)8-3(6)7-1/h3,6-7H,4-5H2/t3-/m0/s1
