13
gdb 4983	3.44213	2.3887	1.41192	2.8143	63.73	-0.2164	-0.019	0.1974	804.8936	0.098705	-394.845652	-394.83919	-394.838245	-394.87596	25.035	
N	-0.0460521126	 1.4356965184	-0.1204809802	-0.598963
C	-0.0328686999	 0.0490013093	-0.0441247117	 0.184157
C	-1.1677364698	-0.7494894108	 0.0394094703	-0.046283
N	-1.1309131355	-2.0898783869	 0.0484283314	-0.257247
C	 0.0706453341	-2.6421332607	-0.0231178798	 0.049681
N	 1.2382166738	-1.9866713719	-0.0967660554	-0.34384
C	 1.176895415	-0.6708072457	-0.1062561911	 0.401838
O	 2.324844975	 0.0386849692	-0.1707350937	-0.426703
H	 0.8199534421	 1.8733569017	 0.1586874992	 0.264481
H	-0.8536699954	 1.8794916498	 0.2921729625	 0.252397
H	-2.1512070651	-0.286075033	 0.1006637782	 0.102887
H	 0.1248616805	-3.7267702519	-0.0194353317	 0.114494
H	 3.0434185879	-0.6089167575	-0.1930312081	 0.3031
169.2095	289.3181	301.4257	324.1253	437.5184	468.1783	539.5912	553.3864	600.5274	625.7071	637.8128	790.1884	803.3485	910.362	927.2037	969.1297	1099.2723	1134.8459	1193.4047	1295.1936	1329.3814	1354.4221	1373.212	1455.8717	1518.8626	1610.3627	1640.2112	1658.7795	3140.4843	3178.1751	3563.826	3667.3322	3765.6522
NC1=CN=CN=C1O	Nc1cncnc1O	
InChI=1S/C4H5N3O/c5-3-1-6-2-7-4(3)8/h1-2H,5H2,(H,6,7,8)	InChI=1S/C4H5N3O/c5-3-1-6-2-7-4(3)8/h1-2H,5H2,(H,6,7,8)
