19
gdb 3070	9.37758	1.06516	1.02483	0.9425	68.81	-0.2419	0.0937	0.3356	1199.4664	0.170301	-310.899612	-310.891252	-310.890308	-310.932864	29.632	
C	 0.2453423492	 1.3803453789	 0.216117423	-0.382139
C	-0.1637264484	-0.0319880589	-0.208551533	-0.181332
C	 0.7644289818	-0.6128323629	-1.2660255843	-0.035478
O	 0.3085855023	-1.9123550812	-1.6036462455	-0.249973
C	 1.0878689854	-2.536101365	-2.5723620921	 0.151164
C	 2.3344991177	-3.276694312	-2.154494159	-0.287501
C	 1.083944984	-4.0290658847	-2.5705012471	-0.287508
H	 1.2560923377	 1.3938531373	 0.6389774301	 0.11576
H	 0.2332944816	 2.0723408191	-0.6333224176	 0.115853
H	-0.4361297659	 1.7758596333	 0.9747635929	 0.116815
H	-0.1680646811	-0.7037720823	 0.6576401763	 0.105048
H	-1.1853581839	-0.0296544553	-0.6056119914	 0.106675
H	 0.773890533	 0.0306296372	-2.1626374121	 0.082222
H	 1.8001730673	-0.6574814783	-0.8917192085	 0.08643
H	 1.1050692392	-2.020590533	-3.5343771376	 0.079362
H	 3.1927202802	-3.2774078411	-2.817516761	 0.110366
H	 2.5736264722	-3.2726783669	-1.0968734197	 0.117498
H	 0.5118608379	-4.5063600261	-1.7832474035	 0.124486
H	 1.07520436	-4.5492508279	-3.5215582198	 0.112253
64.4793	74.0178	133.7131	150.4332	229.5603	301.0921	342.0184	452.5125	483.8789	758.3103	764.8176	816.145	833.4523	899.4205	905.2548	967.7382	979.1962	1042.6932	1051.667	1071.1665	1092.2004	1128.8614	1148.357	1191.3422	1193.3261	1208.4774	1244.6358	1265.3937	1311.6679	1330.934	1383.0731	1413.6804	1439.6634	1452.8894	1492.7455	1498.9085	1500.2149	1507.8144	1527.3925	2954.7361	2986.3136	3031.1908	3038.2085	3070.5326	3082.6739	3098.8917	3107.5788	3134.3768	3141.9451	3219.2674	3234.4679
CCCOC1CC1	CCCOC1CC1	
InChI=1S/C6H12O/c1-2-5-7-6-3-4-6/h6H,2-5H2,1H3	InChI=1S/C6H12O/c1-2-5-7-6-3-4-6/h6H,2-5H2,1H3
