9
gdb 752	9.50387	3.97742	2.80395	3.3378	41.36	-0.2313	-0.0026	0.2287	427.0036	0.063044	-317.396153	-317.391436	-317.390492	-317.424066	16.918	
N	-0.1114799241	 1.3208246146	 0.0086687523	-0.598355
C	-0.0135301032	 0.0619209497	 0.0011666175	 0.502325
N	-1.0635335755	-0.8464635278	 0.0027747716	-0.32776
C	-0.5281152022	-2.0993720711	-0.0074295005	 0.088392
N	 0.7592428313	-2.1020211606	-0.0156867961	-0.123436
O	 1.11585186	-0.7186820502	-0.0102538038	-0.23977
H	 0.8059989591	 1.758799238	 0.0052860834	 0.236936
H	-2.0318486188	-0.5802434746	 0.010189209	 0.291733
H	-1.1162599665	-3.004711918	-0.0087015734	 0.169934
195.1993	408.2422	442.441	609.6785	722.4341	724.719	761.9104	875.9128	887.9856	936.168	954.7725	1056.9032	1129.0945	1239.5066	1330.8146	1435.9613	1654.0596	1797.7071	3265.5923	3542.4555	3701.7723
N=C1NC=NO1	[NH][C@H]1NC=NO1	
InChI=1S/C2H3N3O/c3-2-4-1-5-6-2/h1H,(H2,3,4,5)	InChI=1S/C2H4N3O/c3-2-4-1-5-6-2/h1-3H,(H,4,5)/t2-/m0/s1
