12
gdb 4729	6.61592	1.36743	1.13472	5.675	67.06	-0.2123	-0.036	0.1763	957.3647	0.086576	-373.752148	-373.745328	-373.744383	-373.783037	25.257	
N	 0.0031210631	 1.3989296959	 0.1547133435	-0.601553
C	-0.0315045149	 0.0135348696	 0.0510986328	 0.297475
C	-1.1313857451	-0.8288739224	 0.0226538607	-0.162971
N	-0.6088820746	-2.098687175	-0.0118715464	-0.278998
C	 0.7480306027	-1.9809748566	 0.0012179266	 0.25739
N	 1.1235168212	-0.7090989576	 0.0356866556	-0.337047
C	 1.6002433162	-3.112123586	-0.0258948234	 0.235641
N	 2.2622200328	-4.0624956747	-0.0510779071	-0.339534
H	 0.9099431427	 1.7661588716	-0.1011101273	 0.25896
H	-0.7366290204	 1.8744150045	-0.3423689549	 0.24904
H	-2.1918538735	-0.6445858212	 0.0316865406	 0.137287
H	-1.1278601902	-2.960910998	-0.0411452209	 0.284309
145.2036	157.7492	241.1049	321.559	384.8906	488.5772	549.4659	558.4879	586.43	645.7406	680.2048	714.1332	731.7474	766.6933	1007.9274	1032.9045	1105.8805	1118.0441	1268.0749	1334.9681	1416.3731	1455.8804	1533.742	1606.1889	1649.652	2342.8828	3282.4985	3556.4982	3654.7732	3664.3822
NC1=CNC(=N1)C#N	Nc1c[nH]c(n1)C#N	
InChI=1S/C4H4N4/c5-1-4-7-2-3(6)8-4/h2H,6H2,(H,7,8)	InChI=1S/C4H4N4/c5-1-4-7-2-3(6)8-4/h2H,6H2,(H,7,8)
