16
gdb 2040	4.43951	2.51745	2.2454	0.6162	60.27	-0.2287	0.0763	0.3049	665.9303	0.13635	-325.728744	-325.72194	-325.720996	-325.758796	26.681	
C	-0.0565952697	 1.5613113264	 0.0639521532	-0.454732
C	 0.0279304348	 0.0453872525	 0.0115012978	 0.431789
O	-1.2463447348	-0.55237313	-0.1674149196	-0.484639
C	 1.1225081219	-0.5996194018	-0.9340823309	-0.28084
C	 1.7107875171	-1.2960171056	 0.2960314381	-0.037376
N	 2.1066950236	-0.2093685101	 1.2269704118	-0.340847
C	 0.7005970989	-0.6773737082	 1.1911751834	-0.078399
H	 0.9186527565	 1.9860070964	 0.3116082261	 0.142337
H	-0.3705498516	 1.9667856384	-0.9064847453	 0.100652
H	-0.7865554992	 1.8750751247	 0.8170605812	 0.117072
H	-1.6428382699	-0.1663956491	-0.9559314127	 0.274712
H	 0.6467594742	-1.2904066545	-1.6330122741	 0.101937
H	 1.799579918	 0.0780304676	-1.4608531623	 0.096693
H	 2.1832127174	-2.2688406037	 0.3496986341	 0.090743
H	 2.5419957459	-0.6486258773	 2.037691395	 0.229139
H	 0.2008884069	-1.0595017557	 2.0728897743	 0.091761
180.1042	240.5882	266.505	284.7813	365.5858	406.1353	447.9225	516.5504	635.3218	777.2188	818.1277	839.025	856.3159	928.0043	945.6867	956.2051	982.8139	1008.9643	1084.9526	1094.7283	1106.9068	1145.6055	1190.8527	1214.3189	1249.1998	1280.2471	1310.8194	1371.9512	1398.7388	1402.6914	1460.4701	1486.8643	1499.1893	3022.9863	3060.6183	3090.1563	3127.7563	3132.7385	3185.328	3199.1558	3473.9328	3804.8357
CC1(O)CC2NC12	C[C@@]1(O)C[C@H]2N[C@@H]12	
InChI=1S/C5H9NO/c1-5(7)2-3-4(5)6-3/h3-4,6-7H,2H2,1H3	InChI=1S/C5H9NO/c1-5(7)2-3-4(5)6-3/h3-4,6-7H,2H2,1H3/t3-,4-,5-/m1/s1
