16
gdb 316	5.99752	3.39906	3.39861	0.2077	61.09	-0.2934	0.0984	0.3917	520.6157	0.144312	-234.455424	-234.449921	-234.448977	-234.483864	21.869	
C	-0.0177798368	 1.480954567	 0.0116977266	-0.510309
C	 0.0017930842	-0.0248657413	 0.0006615812	 0.351657
C	 0.6260226093	-0.9603478968	-1.0841050944	-0.240661
C	 0.0260676924	-1.9125136947	-0.0129432886	-0.035093
C	 0.64206286	-0.9756507119	 1.0625448984	-0.240718
C	-1.2254210254	-0.9920712373	 0.0028038098	-0.240727
H	 0.999318956	 1.8884817256	 0.0057778923	 0.116525
H	-0.5416376416	 1.8751023999	-0.8662833044	 0.116529
H	-0.5263604063	 1.8619903859	 0.9042979787	 0.116534
H	 0.1447038192	-0.9583428792	-2.0670062019	 0.083198
H	 1.716574818	-0.944583286	-1.1745329385	 0.083243
H	 0.0400410413	-3.0028002158	-0.0207049639	 0.06689
H	 1.7338125624	-0.961080857	 1.136701135	 0.083262
H	 0.1757884159	-0.9878095609	 2.052546099	 0.083196
H	-1.8354634278	-1.0052875408	 0.9111919254	 0.083232
H	-1.8493857807	-0.9927371969	-0.8963727948	 0.083243
204.6512	298.8764	299.3184	539.7728	542.2992	618.9566	771.0048	773.0937	882.8379	907.3736	908.2858	961.123	971.1452	995.3434	1022.8685	1023.8479	1104.9517	1105.3201	1146.299	1147.3914	1196.1554	1196.7809	1233.8715	1244.9549	1245.5946	1327.1162	1409.5975	1489.8164	1490.2513	1497.0868	1498.7385	1554.9768	3023.9048	3035.4811	3035.773	3045.1671	3091.6279	3091.7222	3097.1005	3103.646	3104.1999	3107.1513
CC12CC(C1)C2	C[C@@]12C[C@@H](C1)C2	
InChI=1S/C6H10/c1-6-2-5(3-6)4-6/h5H,2-4H2,1H3	InChI=1S/C6H10/c1-6-2-5(3-6)4-6/h5H,2-4H2,1H3/t5-,6+
