17
gdb 4022	2.15473	1.8581	1.27521	0.6098	75.65	-0.2379	-0.0287	0.2092	1032.237	0.138845	-363.794454	-363.785066	-363.784122	-363.828924	33.969	
C	-0.0037872494	 1.5196060284	-0.0793932841	-0.394994
C	 0.0194568769	-0.0142828804	 0.0366959616	-0.082143
C	 0.732015513	-0.4702836469	 1.3216834815	-0.394985
C	-1.3932027125	-0.5754343501	-0.0182946179	 0.196041
N	-1.8669691236	-1.3778636457	-0.9077553405	-0.190186
O	-0.9276683585	-1.7158823188	-1.8800879773	-0.384042
C	-2.3121112595	-0.1930983787	 1.0069450111	 0.316115
C	-3.0367064019	 0.1669727185	 1.8986946259	-0.428929
H	 1.0174450877	 1.9130706002	-0.0595453711	 0.114959
H	-0.473999028	 1.8406541031	-1.0136103578	 0.123022
H	-0.5575267757	 1.9683702168	 0.7510670642	 0.128489
H	 0.5547081328	-0.4213745097	-0.8225677363	 0.116097
H	 0.2093716575	-0.1058964455	 2.2114907116	 0.12849
H	 0.7840802959	-1.5614362203	 1.3817266489	 0.123034
H	 1.7540597473	-0.079019558	 1.3432187514	 0.114961
H	-1.4335972693	-2.304997321	-2.450144839	 0.312657
H	-3.6924685527	 0.4720760582	 2.6764368579	 0.201414
23.7146	146.5667	163.7283	224.7272	225.0034	255.099	255.824	328.131	409.6924	423.6287	471.9857	561.9083	601.552	610.0388	660.9487	696.1883	706.9025	907.1319	934.5602	969.517	1006.531	1055.3097	1119.6134	1192.4244	1260.2873	1331.8954	1349.5708	1394.7731	1413.8859	1421.0807	1486.9535	1490.8277	1500.5516	1512.6108	1668.8158	2223.0557	3035.4891	3038.4475	3095.5802	3106.6322	3110.3119	3112.2303	3123.8774	3501.6104	3816.6996
CC(C)C(=NO)C#C	CC(C)C(=NO)C#C	
InChI=1S/C6H9NO/c1-4-6(7-8)5(2)3/h1,5,8H,2-3H3	InChI=1S/C6H9NO/c1-4-6(7-8)5(2)3/h1,5,8H,2-3H3
