17
gdb 2776	4.15621	2.15458	1.5285	2.6018	64.71	-0.2364	-0.0172	0.2193	831.9988	0.147537	-309.735874	-309.728336	-309.727392	-309.767751	27.271	
C	 0.1333100766	 1.6835598484	-0.1044200187	-0.384617
C	 0.1712759697	 0.1654562967	 0.1024083094	-0.195752
C	 0.5812669247	-0.5927353609	-1.1585646304	-0.067492
C	 0.5821715641	-2.156395983	-1.1729261112	-0.259492
C	-0.1773414056	-2.1608251349	-2.5338490212	-0.331033
C	-0.422926414	-0.6573044428	-2.3267615035	 0.391791
O	-1.1892958312	 0.1318115047	-2.8020924605	-0.298126
H	 1.1236446513	 2.0690372853	-0.3719134575	 0.110678
H	-0.557079035	 1.9446548616	-0.910593863	 0.148215
H	-0.1889615351	 2.1965554425	 0.8068205588	 0.110611
H	 0.8679834977	-0.0894222036	 0.9111851673	 0.098998
H	-0.8165398958	-0.1883514557	 0.4248646495	 0.099084
H	 1.5379020901	-0.2048238659	-1.5351730245	 0.097898
H	 1.5610440756	-2.6371744326	-1.163671049	 0.107451
H	-0.0219156978	-2.5706035307	-0.361630487	 0.112348
H	 0.4725564045	-2.3464334997	-3.3954177597	 0.131261
H	-1.06843035	-2.7855749094	-2.6323237188	 0.128178
73.9451	112.4009	168.6844	239.8732	273.1694	378.5591	437.2467	542.3578	681.1626	719.2088	742.2719	802.5133	896.8682	928.2629	967.3434	974.2868	1014.3156	1046.3684	1098.3827	1128.2753	1169.6459	1199.5616	1227.6366	1239.644	1258.65	1285.9407	1335.2275	1368.5006	1412.1794	1441.7969	1488.3151	1494.1685	1498.8282	1513.1587	1879.7413	3015.0909	3019.9389	3035.2364	3052.3926	3057.4804	3071.9712	3100.2372	3112.1453	3126.1985	3132.2413
CCC1CCC1=O	CC[C@H]1CCC1=O	
InChI=1S/C6H10O/c1-2-5-3-4-6(5)7/h5H,2-4H2,1H3	InChI=1S/C6H10O/c1-2-5-3-4-6(5)7/h5H,2-4H2,1H3/t5-/m0/s1
