13
gdb 3559	5.24295	3.08593	2.7267	2.1546	51.66	-0.2397	0.0736	0.3133	541.0817	0.102942	-344.379764	-344.37466	-344.373716	-344.408351	20.656	
O	 0.0904931974	 1.4000323289	-0.0043561426	-0.443744
C	-0.0062284039	 0.0099676142	-0.0022912739	 0.187835
C	-1.3783004432	-0.6749541105	-0.0729649353	-0.179496
C	-1.6745779601	-0.7394943241	-1.5730400794	 0.087108
O	-0.6154827458	-0.0576256566	-2.2634370426	-0.307234
C	 0.2938676754	-0.7295299042	-1.3359286736	 0.006474
C	-0.8040647352	-1.7819120623	-0.9640102732	-0.141344
H	-0.2768244999	 1.6790305581	-0.8547753294	 0.285873
H	 0.5928474036	-0.3806314227	 0.8236819473	 0.095339
H	-2.1456415667	-0.7476511893	 0.68630089	 0.096723
H	-2.6585107442	-0.7704571263	-2.0202017923	 0.115702
H	 1.2930592503	-0.8766717096	-1.7387234003	 0.090393
H	-0.8375786778	-2.8595888656	-0.9121100747	 0.106371
223.0764	333.6888	519.0533	591.5644	626.1515	766.3539	771.7565	785.8339	796.7993	837.6117	893.4999	922.4498	958.5595	981.9929	1020.8623	1028.5187	1058.3831	1062.5614	1132.628	1156.3851	1170.7473	1221.5755	1242.0851	1290.2344	1320.5609	1370.8232	1440.7673	3097.0552	3154.6652	3207.5061	3216.7625	3234.9821	3750.9783
OC1C2C3OC1C23	O[C@H]1[C@H]2[C@H]3O[C@@H]1[C@@H]23	
InChI=1S/C5H6O2/c6-3-1-2-4(1)7-5(2)3/h1-6H	InChI=1S/C5H6O2/c6-3-1-2-4(1)7-5(2)3/h1-6H/t1-,2-,3-,4+,5+/m0/s1
