11
gdb 240	9.27563	2.24606	1.83479	4.0954	45.3	-0.2723	-0.0251	0.2472	632.4706	0.083113	-322.460671	-322.454075	-322.45313	-322.491611	21.35	
C	-0.0900440871	 1.4363699224	-0.0670866313	-0.461071
C	 0.1542527159	-0.0355556972	 0.1047506364	 0.41458
N	 0.5324139089	-0.6779501359	 1.1240239974	-0.495117
O	-0.0820694347	-0.6783387209	-1.0935793222	-0.208848
C	-0.170093804	-2.0503551882	-1.1248846514	 0.176201
O	-0.2890430696	-2.6226210716	-2.1623222018	-0.254626
H	 0.1208077434	 1.9772471204	 0.8565263896	 0.133526
H	 0.5432131404	 1.8275062079	-0.869167737	 0.161112
H	-1.1289291621	 1.6120387428	-0.3628684685	 0.157828
H	 0.6557536839	-0.055064282	 1.918886668	 0.2353
H	-0.130319965	-2.4990136174	-0.1253089291	 0.141116
58.8195	129.026	145.0902	239.2912	401.5231	558.7696	564.7844	615.9088	867.1373	951.0604	1004.1625	1054.1363	1072.0578	1078.3391	1104.3408	1338.4772	1394.0624	1415.4786	1468.4847	1478.3765	1748.8915	1871.1353	3050.4306	3087.7867	3114.8864	3148.7996	3521.2412
CC(=N)OC=O	C[C]([NH])OC=O	
InChI=1S/C3H5NO2/c1-3(4)6-2-5/h2,4H,1H3	InChI=1S/C3H5NO2/c1-3(4)6-2-5/h2,4H,1H3
