21
gdb 1105	3.0668	2.21152	1.83806	1.3142	70.16	-0.26	0.0673	0.3273	851.0397	0.192033	-312.133805	-312.124516	-312.123572	-312.16637	35.288	
C	 0.0180297702	 1.5389829764	 0.0832393141	-0.405353
C	-0.0401305843	 0.0088155059	-0.0416255309	 0.05665
C	-1.4862126186	-0.486661033	 0.099291236	-0.40765
C	 0.6825007033	-0.5118970272	-1.3144332435	 0.364504
C	 0.6927272637	-2.0480948882	-1.361512037	-0.419759
C	 0.1014952431	 0.0545669319	-2.6191376965	-0.42252
O	 2.0344420895	-0.0510290725	-1.1565556514	-0.468605
H	 1.0343799558	 1.905367368	-0.0711477189	 0.132883
H	-0.6407059054	 2.0289863607	-0.6424693557	 0.106291
H	-0.3139669618	 1.8486904439	 1.0796712188	 0.103873
H	 0.5413577213	-0.4074491473	 0.7919786453	 0.078079
H	-2.1187973275	-0.1267695116	-0.7199314406	 0.113068
H	-1.555415729	-1.5774706589	 0.124937828	 0.112516
H	-1.9203188335	-0.1088496473	 1.0306501378	 0.112752
H	-0.3021742192	-2.4645816366	-1.5422877977	 0.115924
H	 1.3421077293	-2.3924576206	-2.1752772976	 0.097079
H	 1.0798802716	-2.4590665327	-0.4243599178	 0.118513
H	 0.181310402	 1.143636642	-2.6420188951	 0.124473
H	 0.6531907808	-0.342032979	-3.4800377295	 0.099501
H	-0.9487953666	-0.22186074	-2.7527398293	 0.116027
H	 2.5317157052	-0.331835814	-1.9317714984	 0.271756
74.9694	212.1427	239.9782	250.4341	261.6947	279.7985	285.2368	295.1415	352.7028	365.5354	404.2705	455.3048	483.7752	533.6047	695.6263	858.7383	917.3423	926.1232	933.2982	953.4578	977.6526	1003.304	1085.7353	1105.533	1146.9751	1202.8112	1214.5092	1224.8047	1348.6613	1359.8277	1374.2807	1397.2193	1398.7602	1412.9731	1424.2058	1479.2402	1483.8671	1491.027	1496.9262	1508.1059	1510.908	1513.1879	1520.6205	3013.8455	3026.4676	3032.9015	3034.3752	3039.6703	3089.6789	3091.4637	3096.3545	3099.7473	3111.8889	3120.3845	3129.5898	3136.7363	3809.2522
CC(C)C(C)(C)O	CC(C)C(C)(C)O	
InChI=1S/C6H14O/c1-5(2)6(3,4)7/h5,7H,1-4H3	InChI=1S/C6H14O/c1-5(2)6(3,4)7/h5,7H,1-4H3
