19
gdb 1275	7.52764	1.03267	0.93409	2.5767	68.54	-0.2413	-0.0069	0.2344	1271.3575	0.168818	-310.954514	-310.945247	-310.944303	-310.989533	31.44	
C	-0.0479837193	 1.5557178652	 0.0844879944	-0.379195
C	 0.0885752651	 0.0312808976	 0.0428059211	-0.171673
C	 0.6770318289	-0.4780013315	-1.27681609	-0.149101
C	 0.8155282586	-1.9988608747	-1.3238290153	-0.300657
C	 1.3992142302	-2.5297224945	-2.6278055148	 0.375819
C	 1.558303317	-4.0382210102	-2.7270655075	-0.472404
O	 1.7188097661	-1.7951048858	-3.5343764213	-0.289906
H	 0.9252939451	 2.0427151075	-0.0413397086	 0.115844
H	-0.701676318	 1.9154707827	-0.7177170453	 0.115844
H	-0.4699941524	 1.8941888219	 1.0359221204	 0.110084
H	 0.7195693213	-0.3031237591	 0.8775100322	 0.091795
H	-0.8951805435	-0.4294158126	 0.2061865009	 0.091794
H	 0.0529562715	-0.1494127357	-2.1160186651	 0.108348
H	 1.6599121897	-0.0237296532	-1.4479428543	 0.108354
H	 1.4465947493	-2.3623528727	-0.4994421837	 0.11567
H	-0.1571356296	-2.4878026444	-1.1662083153	 0.115663
H	 0.5892723988	-4.5341322973	-2.6007030702	 0.136153
H	 1.9822569712	-4.3034519129	-3.6962655131	 0.141425
H	 2.2092646299	-4.4076697004	-1.9266483046	 0.136143
33.6882	78.6798	95.8632	122.031	137.6692	242.4915	293.8961	312.6506	453.9963	478.0342	590.893	722.2574	773.5414	823.1375	892.0134	897.4198	952.0675	993.5305	1032.792	1072.9156	1129.4887	1147.3527	1179.0343	1237.3504	1290.44	1313.3081	1327.7356	1369.1239	1383.3356	1400.0278	1414.3136	1450.3054	1465.4446	1477.3006	1484.0321	1495.4252	1499.2277	1511.9875	1811.4715	3004.9832	3010.156	3030.1054	3030.1865	3036.0126	3036.4568	3041.3095	3079.3407	3096.3202	3098.2403	3102.0431	3151.2716
CCCCC(C)=O	CCCCC(=O)C	
InChI=1S/C6H12O/c1-3-4-5-6(2)7/h3-5H2,1-2H3	InChI=1S/C6H12O/c1-3-4-5-6(2)7/h3-5H2,1-2H3
