15
gdb 3435	4.91142	2.66825	1.94781	1.797	62.	-0.2344	0.011	0.2454	682.0174	0.125526	-308.512137	-308.505941	-308.504997	-308.541884	23.717	
C	-0.0260056913	 1.5023683981	 0.0647323259	-0.502822
C	-0.0208406167	 0.0087167729	-0.0027349355	 0.339087
C	 0.003735586	-0.7723293896	-1.0893173436	-0.173561
C	-0.0075894288	-2.250587651	-0.756380249	-0.286531
C	 0.0301161799	-2.2557124418	 0.7676493329	 0.047688
O	 1.2004487625	-1.6595865891	 1.3304181407	-0.257097
C	 0.0009301082	-0.8565169216	 1.2233494802	-0.060852
H	 0.8682904023	 1.8794606729	 0.576365732	 0.135389
H	-0.0614848338	 1.948660862	-0.9326593451	 0.125236
H	-0.8899589626	 1.8722675897	 0.631439973	 0.125516
H	 0.0651070698	-0.4088127787	-2.1098360747	 0.092095
H	-0.911305246	-2.7501301661	-1.129859257	 0.10918
H	 0.8503204398	-2.7838832581	-1.1840287088	 0.123078
H	-0.3921917534	-3.080349177	 1.335707333	 0.09334
H	-0.4179317061	-0.529066173	 2.1712621061	 0.090254
173.2033	198.0726	289.4097	324.9119	393.7279	575.0181	600.9512	745.6504	809.2186	825.2451	861.8163	882.0384	922.0819	950.1128	999.6738	1024.0165	1049.3449	1067.4249	1104.584	1184.1857	1191.915	1254.3315	1275.6484	1312.9867	1359.4762	1410.7067	1415.3207	1462.1432	1479.4958	1489.5252	1704.9441	3018.7502	3022.7966	3058.5516	3065.6162	3111.512	3143.422	3155.3647	3186.3749
CC1=CCC2OC12	CC1=CC[C@H]2O[C@@H]12	
InChI=1S/C6H8O/c1-4-2-3-5-6(4)7-5/h2,5-6H,3H2,1H3	InChI=1S/C6H8O/c1-4-2-3-5-6(4)7-5/h2,5-6H,3H2,1H3/t5-,6+/m1/s1
