19
gdb 1483	6.54277	1.1887	1.08159	2.8115	68.5	-0.2474	-0.0192	0.2282	1111.1501	0.169072	-310.940195	-310.931223	-310.930278	-310.974155	31.147	
C	 0.0864301235	 1.5544443731	 0.0930075135	-0.392981
C	-0.0237119825	 0.0284337876	 0.0174809013	-0.16677
C	-1.4629285966	-0.5084881694	-0.0931907822	 0.031165
C	-2.1721179779	-0.041676441	-1.3732288715	-0.392128
C	-1.4663339911	-2.0502628868	-0.0006446458	-0.274771
C	-2.8556824096	-2.6167803876	 0.1754994124	 0.158268
O	-3.3632754015	-3.4554859711	-0.5235865407	-0.242051
H	 1.1255260314	 1.8605120006	 0.2485650546	 0.116051
H	-0.2621733003	 2.0377851831	-0.8243732315	 0.121547
H	-0.504763721	 1.9533339745	 0.9251648896	 0.114513
H	 0.5602151871	-0.3407664861	-0.8367379469	 0.097771
H	 0.4410497118	-0.4056962436	 0.911975726	 0.092983
H	-2.0270921948	-0.1241433831	 0.7705616015	 0.074848
H	-1.6182046088	-0.3645385262	-2.2626607217	 0.119452
H	-3.1811759192	-0.4597197491	-1.4472046012	 0.125492
H	-2.2636303925	 1.0469107046	-1.4108260985	 0.119376
H	-1.0085991405	-2.5067960969	-0.8843450797	 0.116805
H	-0.8832962469	-2.3561908732	 0.8805626278	 0.112954
H	-3.4119064005	-2.1854011796	 1.043125043	 0.067475
57.51	72.8991	99.3695	192.3643	213.6056	258.5669	289.995	347.9554	412.386	437.7781	533.389	769.1547	783.5908	847.1754	922.4007	950.88	975.8922	1021.5252	1040.4996	1049.0502	1155.0376	1159.5697	1179.5873	1230.9227	1272.1527	1304.5057	1350.26	1376.3434	1384.0892	1414.2764	1418.9949	1430.1266	1459.2746	1483.404	1496.3366	1498.9055	1505.5648	1512.8294	1834.608	2837.5174	2986.8795	3007.8546	3013.8138	3032.8914	3034.8666	3047.5907	3086.669	3096.9744	3099.963	3108.4651	3117.7795
CCC(C)CC=O	CC[C@@H](C)CC=O	
InChI=1S/C6H12O/c1-3-6(2)4-5-7/h5-6H,3-4H2,1-2H3	InChI=1S/C6H12O/c1-3-6(2)4-5-7/h5-6H,3-4H2,1-2H3/t6-/m1/s1
