15
gdb 3048	10.83209	1.1221	1.08498	2.7776	58.49	-0.2564	-0.0281	0.2283	1053.735	0.122454	-345.630398	-345.622739	-345.621795	-345.663361	26.008	
O	-0.0863171583	 0.0701274124	 0.2421605363	-0.237709
C	 0.0606717223	 1.2067885778	-0.1200633546	 0.138871
C	 1.4174809053	 1.8453565112	-0.3575343045	-0.148192
O	 1.2086671048	 3.1859397176	-0.7356740422	-0.251366
C	 2.3893631458	 3.8786260554	-1.006395032	 0.15013
C	 3.0172204571	 3.7523035076	-2.3711404333	-0.288299
C	 2.2841089149	 5.0170361703	-1.9648449718	-0.286154
H	-0.7939942485	 1.8914086247	-0.3155084998	 0.097171
H	 2.0143763487	 1.7643457558	 0.5658676002	 0.123425
H	 1.9497824569	 1.2758546686	-1.1362954552	 0.125845
H	 3.051604599	 3.9798342298	-0.1457196239	 0.088744
H	 4.0981661789	 3.7737848465	-2.453376388	 0.11768
H	 2.5177226336	 3.1051204554	-3.0835506583	 0.121985
H	 1.308958595	 5.1841747633	-2.4073580187	 0.129067
H	 2.8556899444	 5.9159175634	-1.7647764944	 0.1188
54.9864	65.0356	120.9985	144.4989	326.3533	366.9436	455.0312	555.4257	738.2397	758.8461	820.235	835.3792	970.8198	974.1322	1049.2826	1055.1838	1074.2762	1113.827	1119.7097	1130.5117	1193.3856	1204.9964	1232.3324	1247.97	1340.0091	1394.182	1417.4549	1453.2591	1479.0601	1500.9305	1845.1582	2899.8298	2972.6862	3004.475	3094.697	3137.3567	3144.5379	3222.0484	3237.1496
O=CCOC1CC1	O=CCOC1CC1	
InChI=1S/C5H8O2/c6-3-4-7-5-1-2-5/h3,5H,1-2,4H2	InChI=1S/C5H8O2/c6-3-4-7-5-1-2-5/h3,5H,1-2,4H2
