20
gdb 2338	5.83041	1.30786	1.17274	1.1213	72.2	-0.2195	0.0912	0.3107	1090.8615	0.182356	-291.017966	-291.00942	-291.008476	-291.050972	30.791	
C	-0.2150076248	 1.5245783801	 0.1274849253	-0.381655
C	-0.1537846214	 0.0119376686	-0.0963400756	-0.159998
C	 0.9165142584	-0.3933436978	-1.1118507234	-0.11874
N	 0.9579497583	-1.8445648427	-1.2506475262	-0.080987
C	 0.1477776463	-2.4522153208	-2.3023232984	-0.254079
C	 1.6364055248	-2.4596140672	-2.3930209672	 0.031598
C	 2.3676768025	-1.6680299219	-3.4561978213	-0.411482
H	 0.7392369788	 1.9105804158	 0.503661284	 0.113671
H	-0.441891018	 2.0579626299	-0.8026107485	 0.111886
H	-0.9881082907	 1.7865148984	 0.8561254667	 0.113369
H	 0.0484247428	-0.5065388293	 0.8474625515	 0.106546
H	-1.1282283524	-0.3530106615	-0.4450767071	 0.096691
H	 0.7238427761	 0.1290134396	-2.065083371	 0.076568
H	 1.9014962531	-0.0595555238	-0.7602444707	 0.096856
H	-0.407675958	-3.3464517348	-2.0303759753	 0.109681
H	-0.3791772656	-1.7840197069	-2.9848199456	 0.100231
H	 2.1466421811	-3.3822378692	-2.1164916106	 0.086714
H	 1.8017192104	-0.7976054062	-3.7960266232	 0.120406
H	 3.3408409308	-1.3198591868	-3.0919079769	 0.121577
H	 2.5521026176	-2.3032722933	-4.3291694763	 0.121149
77.8171	96.7996	131.6883	193.6372	235.3245	269.2688	323.9236	384.0952	440.5856	516.804	753.249	760.9248	816.4918	890.1541	902.2045	909.5363	956.6933	1033.7762	1041.8149	1063.5443	1112.545	1124.9298	1147.0908	1153.3253	1191.9122	1201.866	1276.7834	1323.3047	1331.1923	1339.4802	1397.2546	1410.0568	1414.5848	1422.661	1485.3886	1492.7104	1495.3115	1500.2796	1501.4594	1509.3269	1517.8832	2947.2888	3026.0627	3028.6385	3034.3105	3038.1026	3068.0941	3077.9342	3091.2554	3095.95	3096.337	3103.2333	3124.6954	3165.5814
CCCN1CC1C	CCCN1C[C@H]1C	
InChI=1S/C6H13N/c1-3-4-7-5-6(7)2/h6H,3-5H2,1-2H3	InChI=1S/C6H13N/c1-3-4-7-5-6(7)2/h6H,3-5H2,1-2H3/t6-,7?/m1/s1
