12
gdb 4631	6.68192	1.35671	1.12773	3.1887	67.55	-0.1998	-0.014	0.1858	960.2954	0.084627	-377.550726	-377.543739	-377.542794	-377.581735	26.254	
O	 0.0404355039	-0.0460228575	 0.002951753	-0.425946
C	-0.0002318389	 1.1654919584	 0.0094467752	 0.44508
N	-1.1277594537	 1.9915382511	 0.0292416751	-0.322845
C	-0.7790310015	 3.3279723841	 0.03095203	-0.201502
C	 0.5786936354	 3.3998503067	 0.0127221175	 0.202615
N	 1.0447664203	 2.0758912916	 0.0000512748	-0.426227
C	 1.4317896035	 4.5156758835	 0.0066756982	 0.285551
C	 2.1901194268	 5.4522878705	 0.0010002682	-0.458692
H	-2.0585813682	 1.6135428403	 0.0399345104	 0.275644
H	-1.5046817933	 4.1219793383	 0.04496485	 0.151838
H	 2.0090666247	 1.7944839332	-0.0149009359	 0.274866
H	 2.848137111	 6.2855925899	-0.0038017964	 0.199618
130.2522	149.2002	233.8751	405.7916	435.73	439.6835	516.4526	529.914	554.7471	570.6505	648.5498	690.3308	743.3797	756.0732	762.7413	980.4244	997.7074	1098.6358	1190.5579	1246.224	1344.4673	1397.5391	1411.6399	1641.4365	1853.3514	2229.7177	3294.6955	3501.9408	3694.4583	3697.0044
O=C1NC=C(N1)C#C	O=c1[nH]cc([nH]1)C#C	
InChI=1S/C5H4N2O/c1-2-4-3-6-5(8)7-4/h1,3H,(H2,6,7,8)	InChI=1S/C5H4N2O/c1-2-4-3-6-5(8)7-4/h1,3H,(H2,6,7,8)
