13
gdb 3280	5.49452	2.56783	2.07208	1.9615	53.68	-0.2494	-0.031	0.2184	622.9238	0.1018	-344.430692	-344.424922	-344.423977	-344.46045	21.393	
O	 0.0213081673	 0.0164762465	-0.4008562535	-0.288093
C	 0.0156427113	 1.165713006	-0.0726803084	 0.401268
C	-1.0909838263	 2.1540677884	 0.3617376465	-0.360322
C	 0.0061650669	 3.2348807516	 0.517330129	 0.115255
O	 0.5724115411	 3.2595813969	 1.841280232	-0.285862
C	 1.6710250736	 2.4090960997	 1.4466709545	-0.08399
C	 1.1073092651	 2.2464383354	 0.0142606841	-0.208507
H	-1.7866375768	 2.348052837	-0.4629726329	 0.135499
H	-1.6583151899	 1.9068335207	 1.2619020119	 0.142005
H	-0.1789710281	 4.2310872621	 0.1127472986	 0.090051
H	 2.6242410203	 2.9496013882	 1.4787810587	 0.116132
H	 1.7491360451	 1.5023581003	 2.0568101922	 0.121549
H	 1.7799715205	 2.3825668372	-0.8309532328	 0.105016
92.6989	215.1462	364.0443	434.2578	510.5815	622.4791	717.2038	791.071	840.0093	925.7711	937.0099	944.854	998.1827	1023.859	1048.6247	1071.537	1120.9297	1155.7424	1166.7192	1202.7649	1241.503	1254.5515	1307.081	1356.4124	1415.8777	1525.7771	1894.9691	3024.1209	3050.7368	3072.5666	3102.2128	3122.0458	3133.784
O=C1CC2OCC12	O=C1C[C@H]2OC[C@@H]12	
InChI=1S/C5H6O2/c6-4-1-5-3(4)2-7-5/h3,5H,1-2H2	InChI=1S/C5H6O2/c6-4-1-5-3(4)2-7-5/h3,5H,1-2H2/t3-,5+/m0/s1
