11
gdb 1364	8.90113	1.44646	1.25373	2.9432	59.98	-0.267	-0.0641	0.2029	873.4893	0.074543	-306.056425	-306.04892	-306.047976	-306.08835	25.907	
O	-0.1263311336	-0.1264231588	 0.0008446282	-0.257363
C	-0.0704803885	 1.0784841264	 0.0053609834	 0.248039
C	 1.2399880919	 1.8781496361	-0.0015302598	-0.467187
C	 2.4394292066	 1.0606070963	-0.0153638282	 0.315865
C	 3.4364281112	 0.3923976151	-0.0268575833	-0.430398
C	-1.2627548131	 1.9102612616	 0.018155815	 0.239304
C	-2.2379591729	 2.6155938211	 0.0287359433	-0.398164
H	 1.2076273044	 2.5509110897	-0.8697582329	 0.164432
H	 1.2218687875	 2.5421730113	 0.8738367773	 0.164467
H	 4.314522116	-0.2046308472	-0.0370895078	 0.202497
H	-3.1125147194	 3.2202463286	 0.0380726449	 0.218508
50.3487	116.5984	179.8632	237.4488	322.3187	368.9341	486.0509	564.3965	604.4497	631.183	655.7179	657.6906	709.2283	834.6069	942.1213	974.575	1088.419	1212.8393	1333.2548	1432.9325	1790.072	2212.3321	2251.9258	3018.2064	3045.4807	3493.2253	3506.3538
O=C(CC#C)C#C	O=C(CC#C)C#C	
InChI=1S/C6H4O/c1-3-5-6(7)4-2/h1-2H,5H2	InChI=1S/C6H4O/c1-3-5-6(7)4-2/h1-2H,5H2
