14
gdb 1447	9.03483	1.33173	1.17738	1.0736	57.05	-0.2756	-0.0216	0.2539	977.6157	0.111738	-361.754136	-361.746252	-361.745308	-361.787064	26.215	
C	 0.1151661333	 1.4809076259	 0.007173319	-0.376731
C	-0.0889911543	-0.0316710314	 0.0029917751	-0.306296
C	-1.5450438396	-0.4277486367	 0.01486312	 0.466294
O	-2.487239098	 0.315610795	 0.0284833427	-0.332388
O	-1.6523518296	-1.8005317308	 0.0078557125	-0.207733
C	-2.9090352925	-2.3519610314	 0.0173226766	 0.115043
N	-3.0010442533	-3.6063554171	 0.0106559602	-0.41834
H	 1.1817925515	 1.7196100271	-0.0013153848	 0.118886
H	-0.3490835952	 1.9419533558	-0.8681688089	 0.135558
H	-0.3335468747	 1.9349436027	 0.8941904692	 0.135623
H	 0.3715003097	-0.5029112071	-0.8737169537	 0.144021
H	 0.3872386827	-0.5096244055	 0.86762012	 0.144045
H	-3.7014025676	-1.603386741	 0.0298293332	 0.142478
H	-3.9831439025	-3.8785103856	 0.018951449	 0.239539
47.385	110.2784	119.7877	168.8168	209.9035	303.7484	405.8929	534.8433	563.7369	688.9835	807.6795	854.0872	911.3435	990.9736	1034.7423	1072.7405	1103.7355	1107.9017	1168.4133	1266.7331	1276.9876	1374.8112	1393.3755	1419.0835	1453.134	1494.681	1500.8241	1746.2712	1842.959	3043.26	3054.8531	3071.9694	3127.9997	3130.476	3139.105	3505.8421
CCC(=O)OC=N	CCC(=O)O[CH][NH]	
InChI=1S/C4H7NO2/c1-2-4(6)7-3-5/h3,5H,2H2,1H3	InChI=1S/C4H7NO2/c1-2-4(6)7-3-5/h3,5H,2H2,1H3
