10
gdb 452	8.01043	3.70601	2.64411	2.7134	38.99	-0.2775	-0.0003	0.2772	459.0271	0.074203	-342.335241	-342.330282	-342.329338	-342.36377	16.844	
O	 0.0175637617	 0.0115664183	-0.0721239219	-0.316761
C	-0.0449198818	 1.2020601162	-0.0378292309	 0.409668
C	-1.2636417861	 2.1056495208	 0.1188552559	-0.222078
O	-0.7826151083	 3.4016207591	-0.1807813181	-0.236651
C	 0.604898635	 3.3715592216	 0.0482255267	 0.033747
O	 1.0363076082	 2.024951517	-0.134359699	-0.211705
H	-2.0555057845	 1.8309510373	-0.5809458313	 0.155494
H	-1.6517210272	 2.0262125624	 1.1459602851	 0.135773
H	 1.1055372399	 4.0120251604	-0.6819350236	 0.138912
H	 0.8578349832	 3.6825245369	 1.0737078272	 0.113603
160.3709	190.2195	479.3904	560.2208	676.1445	748.8535	860.6605	977.9957	1016.8288	1054.4264	1102.9723	1145.0442	1208.2642	1227.1202	1231.577	1341.0795	1441.3645	1493.334	1546.3176	1907.6695	2987.3477	2999.1474	3101.9703	3113.2033
O=C1COCO1	O=C1COCO1	
InChI=1S/C3H4O3/c4-3-1-5-2-6-3/h1-2H2	InChI=1S/C3H4O3/c4-3-1-5-2-6-3/h1-2H2
