14
gdb 4322	3.88552	1.86029	1.26096	6.9905	68.16	-0.2073	-0.0043	0.203	896.7106	0.110101	-378.780318	-378.773503	-378.772559	-378.811015	26.525	
O	 0.0127703028	-0.0840787649	 0.0292916884	-0.410508
C	-0.0116098757	 1.1435763969	 0.0159316044	 0.392258
C	-1.2442097597	 1.9246199263	 0.0226742542	-0.337909
C	-1.2440705878	 3.2848735283	 0.0013436807	 0.434988
N	-2.3790027522	 4.0953777809	-0.0782018011	-0.587539
H	-3.2349475323	 3.5620923381	-0.0092240278	 0.262403
H	-2.3890596145	 4.8539838987	 0.5938756712	 0.250743
N	-0.0554202648	 3.976275515	 0.0018923311	-0.369529
C	 1.1504301751	 3.3112052602	-0.0004507411	 0.021466
C	 1.2093073989	 1.9653013464	 0.0148145871	-0.246865
H	-2.1835522981	 1.3851758412	 0.0607267626	 0.09208
H	-0.0777820154	 4.9659801723	-0.1810562009	 0.260344
H	 2.0247643952	 3.9511502553	-0.0101153881	 0.128885
H	 2.1646782986	 1.4560575653	 0.0270505994	 0.109183
166.929	201.8438	282.3947	340.5057	406.7545	473.8529	490.0923	525.3188	538.8202	626.0343	724.0662	740.8551	767.6298	826.7131	867.886	931.6172	953.8282	997.3721	1079.8711	1140.9961	1232.7283	1239.196	1264.4788	1389.2331	1431.6142	1536.7549	1633.6625	1653.7886	1697.1149	1730.2756	3198.0573	3198.7461	3222.2816	3531.3189	3635.6567	3650.531
[O-]C1=CC(=[NH2+])NC=C1	O=c1cc(N)[nH]cc1	
InChI=1S/C5H6N2O/c6-5-3-4(8)1-2-7-5/h1-3H,(H3,6,7,8)	InChI=1S/C5H6N2O/c6-5-3-4(8)1-2-7-5/h1-3H,(H3,6,7,8)
