13
gdb 2172	3.9049	2.99457	1.80086	0.9271	49.82	-0.2592	-0.0409	0.2183	662.1434	0.101658	-381.59931	-381.592966	-381.592022	-381.629578	23.1	
O	 0.2669074359	 1.2861057305	 0.4492056757	-0.435307
C	-0.0158671998	-0.0242444031	 0.0548776992	 0.046941
C	-1.4931600793	-0.3421064719	-0.2042944143	-0.116976
O	-1.4506356401	-1.4993584618	-1.0466120366	-0.252225
C	-0.3946052907	-1.3302961864	-1.9778009026	-0.176294
C	 0.5738247523	-0.359296897	-1.3148672339	 0.33382
O	 1.5582763625	 0.1595475034	-1.774579961	-0.314549
H	 1.0584404789	 1.5506211589	-0.0428319327	 0.295884
H	 0.3786262145	-0.7644375033	 0.7740882608	 0.105396
H	-2.0629512232	-0.6063484644	 0.6872032567	 0.12736
H	-1.974746499	 0.5131234026	-0.7028295362	 0.109684
H	 0.0643078971	-2.2998531465	-2.1959889352	 0.144661
H	-0.7409473389	-0.892850961	-2.9280535799	 0.131605
109.3709	216.0709	255.3806	364.2561	380.1272	471.8003	591.6445	603.2897	657.4779	756.6573	931.0943	948.3379	1011.7172	1076.6028	1089.11	1123.5593	1182.7975	1202.3639	1231.1474	1262.5209	1307.6912	1338.6262	1390.5938	1410.559	1473.9529	1516.8847	1856.4889	2948.797	2985.26	2998.8052	3080.1625	3127.0353	3722.4527
OC1COCC1=O	O[C@H]1COCC1=O	
InChI=1S/C4H6O3/c5-3-1-7-2-4(3)6/h3,5H,1-2H2	InChI=1S/C4H6O3/c5-3-1-7-2-4(3)6/h3,5H,1-2H2/t3-/m0/s1
