14
gdb 2841	5.11225	1.71493	1.44211	2.0081	59.99	-0.2482	0.0294	0.2776	831.6174	0.11275	-324.504178	-324.496856	-324.495912	-324.535758	26.523	
O	 0.0257241594	 1.3507441379	-0.4066365507	-0.420427
C	 0.0158590967	 0.1373977131	 0.3259533065	-0.076103
C	-1.3451526266	-0.5161105857	 0.2620447101	-0.022487
N	-1.6905231973	-1.057167946	-1.059443933	-0.333338
C	-1.5283138681	-1.9916002368	 0.0826879067	-0.247009
C	-0.4335583298	-2.9228523797	 0.0400612907	 0.378194
C	 0.4608021158	-3.7262347221	 0.0341324312	-0.44121
H	-0.2138668286	 1.1149704924	-1.3106896878	 0.290697
H	 0.7752428127	-0.5662796571	-0.0405132611	 0.106903
H	 0.2651352483	 0.3954672197	 1.3602519165	 0.11051
H	-2.131419705	-0.0027673823	 0.8127048655	 0.09751
H	-2.6809313687	-0.9343309294	-1.253063022	 0.240549
H	-2.4410095126	-2.4025723033	 0.5096088053	 0.114775
H	 1.2569580536	-4.4288995808	 0.0192804922	 0.201437
73.9137	124.3642	195.1828	262.433	344.514	433.8512	470.9166	555.581	602.872	625.3126	661.1033	805.2829	822.8329	901.1915	953.2783	992.9046	1014.1247	1072.1148	1123.9395	1173.4481	1213.2655	1247.5154	1273.6891	1364.9483	1394.0755	1430.3807	1459.229	1499.7308	2240.6686	3019.461	3082.6336	3121.7207	3132.0762	3503.1307	3506.6252	3793.3463
OCC1NC1C#C	OC[C@H]1N[C@H]1C#C	
InChI=1S/C5H7NO/c1-2-4-5(3-7)6-4/h1,4-7H,3H2	InChI=1S/C5H7NO/c1-2-4-5(3-7)6-4/h1,4-7H,3H2/t4-,5+/m0/s1
