16
gdb 1879	4.7878	2.22821	1.84311	2.3608	60.05	-0.211	-0.0175	0.1935	728.8912	0.137146	-325.78932	-325.782467	-325.781523	-325.820263	25.377	
C	 0.6143700994	 1.3823979805	-0.0319655941	-0.328959
N	-0.0886063832	 0.1048902676	 0.0442205642	-0.063123
C	 0.1821979034	-0.7706170252	-1.1158024117	-0.179187
C	 1.453792664	-1.5723741976	-0.7761197178	-0.327944
C	 1.4088394913	-1.6535705986	 0.7537582306	 0.396477
O	 2.0919816583	-2.3410683853	 1.4653447702	-0.303924
C	 0.2974227733	-0.6891010436	 1.211206158	-0.283942
H	 1.7165245167	 1.3023742375	-0.0773044286	 0.09532
H	 0.2802145414	 1.9259805377	-0.9207433815	 0.123652
H	 0.3610462094	 1.9882494468	 0.8429770932	 0.1263
H	-0.6671651251	-1.4527491378	-1.2470307752	 0.109596
H	 0.2684455941	-0.1741076622	-2.0261707894	 0.10935
H	 1.5097246577	-2.5688254788	-1.2199737075	 0.13123
H	 2.3655437957	-1.0351998258	-1.0633168103	 0.135667
H	 0.6244686727	-0.0724678568	 2.0515447173	 0.130099
H	-0.5475273192	-1.2997198582	 1.5630718126	 0.129389
69.6339	161.4901	220.3226	369.3436	391.8818	449.1351	473.19	585.5201	631.6187	734.2908	819.6085	833.3937	902.3791	954.3945	1033.1712	1052.016	1069.3769	1131.4166	1161.4953	1181.7229	1206.6203	1264.2945	1268.0205	1291.9098	1348.621	1359.1541	1445.4283	1451.6256	1467.0709	1494.4719	1504.5727	1505.7652	1852.7623	2932.846	3001.5827	3026.2519	3048.7513	3066.1878	3103.6682	3108.3631	3111.3248	3115.4049
CN1CCC(=O)C1	CN1CCC(=O)C1	
InChI=1S/C5H9NO/c1-6-3-2-5(7)4-6/h2-4H2,1H3	InChI=1S/C5H9NO/c1-6-3-2-5(7)4-6/h2-4H2,1H3
