16
gdb 1546	4.97699	1.45458	1.19971	4.5961	62.32	-0.2769	0.0204	0.2972	997.2425	0.134689	-325.785038	-325.776569	-325.775625	-325.818481	28.799	
C	 0.0632106468	 1.5111836495	-0.0192494939	-0.385767
C	-0.0305297775	-0.0040556063	-0.0424114423	-0.042722
O	 0.6849416778	-0.4693059293	-1.1795829573	-0.249026
C	 0.7338787042	-1.8766521928	-1.3024319552	-0.002996
C	-0.505675761	-2.456338879	-2.0000509247	-0.39718
C	 1.9551939023	-2.2074156712	-2.0599893562	 0.280269
N	 2.9003714264	-2.499823855	-2.6554582415	-0.316269
H	 1.1076241738	 1.829202727	 0.0369312504	 0.135921
H	-0.3776071512	 1.9365382763	-0.9248802293	 0.133204
H	-0.4715311923	 1.9090020589	 0.8481606771	 0.120114
H	 0.4050527417	-0.4364191526	 0.872925276	 0.097105
H	-1.0832587997	-0.3221632898	-0.0867542554	 0.095628
H	 0.8411692868	-2.338871258	-0.3075406793	 0.114797
H	-0.4141081418	-3.5405474445	-2.1077410706	 0.139459
H	-1.4004295218	-2.2425416946	-1.4102598101	 0.129265
H	-0.6180991745	-2.0098326988	-2.9905213476	 0.148198
49.6414	80.8712	150.3783	210.435	225.199	243.9803	320.3596	371.3571	434.0602	569.4087	573.1468	820.1674	830.5512	869.9082	961.2932	1045.5251	1095.1796	1110.9029	1146.2543	1157.0375	1185.9919	1297.4126	1339.2973	1355.0764	1402.6635	1404.8323	1436.9712	1482.5706	1487.6083	1492.1657	1499.4355	1527.8162	2366.9213	2970.401	2978.1743	3004.9344	3048.786	3053.0043	3123.7953	3128.2293	3129.1448	3140.945
CCOC(C)C#N	CCO[C@@H](C)C#N	
InChI=1S/C5H9NO/c1-3-7-5(2)4-6/h5H,3H2,1-2H3	InChI=1S/C5H9NO/c1-3-7-5(2)4-6/h5H,3H2,1-2H3/t5-/m0/s1
