12
gdb 4319	4.11514	2.04535	1.36627	4.4547	59.37	-0.2492	-0.0376	0.2116	814.1378	0.087036	-410.927708	-410.921057	-410.920113	-410.958658	24.241	
N	 0.0139468319	 1.316687019	 0.0078577208	-0.539138
C	-0.0103840034	-0.0295339857	 0.0008634885	 0.446382
N	-1.1795759488	-0.6345739877	 0.0040868578	-0.382514
C	-1.2109768329	-1.9990552989	-0.0030143378	 0.428723
O	-2.1917738877	-2.7062802596	-0.0012380002	-0.384211
N	 0.0834790421	-2.6231186392	-0.0133692558	-0.324822
C	 1.2182304575	-1.9064089584	-0.0157944188	 0.119446
N	 1.2480684235	-0.6108056762	-0.0091240034	-0.330194
H	 0.8959315826	 1.7959747222	 0.0056143012	 0.273721
H	-0.8537466068	 1.8229329471	 0.0153658064	 0.276496
H	 0.0899733522	-3.632737498	-0.0187325999	 0.273179
H	 2.1531648399	-2.4635088447	-0.0238664086	 0.142931
129.6027	152.8705	190.112	366.7416	418.7107	532.0657	564.2864	590.7406	597.4947	668.5853	780.5427	787.7737	817.4036	927.2407	983.5185	998.734	1074.5875	1173.0976	1257.6886	1385.3681	1428.6841	1481.5734	1552.9052	1635.7487	1692.3503	1836.0819	3157.2026	3620.7075	3630.0687	3771.8641
NC1=NC(=O)NC=N1	Nc1nc(=O)[nH]cn1	
InChI=1S/C3H4N4O/c4-2-5-1-6-3(8)7-2/h1H,(H3,4,5,6,7,8)	InChI=1S/C3H4N4O/c4-2-5-1-6-3(8)7-2/h1H,(H3,4,5,6,7,8)
