12
gdb 3750	4.18924	3.43459	1.91016	2.6812	51.23	-0.2228	0.0134	0.2362	622.9785	0.092206	-356.736238	-356.729946	-356.729002	-356.766515	21.971	
C	 0.0052805549	 1.4633992311	-0.0073454417	-0.349227
N	 0.0327421366	 0.0173005678	-0.0343552859	-0.108531
C	 0.0848378198	-0.8281863349	-1.1121728646	 0.048082
N	 0.0982851127	-2.0793139674	-0.7708061758	-0.217539
N	 0.0529216792	-2.0403332017	 0.6034785882	-0.305476
C	 0.0103575374	-0.768995145	 1.1298588573	 0.470355
O	-0.034668883	-0.3939654238	 2.2832918455	-0.43073
H	 0.9052220273	 1.8853050142	-0.4648462982	 0.141574
H	-0.8775101372	 1.8525423101	-0.5235303671	 0.141562
H	-0.0347254661	 1.7565221356	 1.0435796259	 0.177781
H	 0.111329525	-0.4834636982	-2.1343469928	 0.149804
H	 0.0512054533	-2.8930790479	 1.1343174092	 0.282346
103.3346	179.6023	230.4717	282.395	437.7621	508.2953	658.4261	690.1655	751.1196	791.5881	842.9952	922.1615	1044.9073	1109.1931	1159.589	1206.4428	1254.2132	1322.8927	1375.0243	1415.4295	1465.7441	1497.7997	1509.4657	1623.1911	1840.4915	3040.356	3103.7078	3144.7571	3263.222	3698.9666
CN1C=NNC1=O	Cn1cn[nH]c1=O	
InChI=1S/C3H5N3O/c1-6-2-4-5-3(6)7/h2H,1H3,(H,5,7)	InChI=1S/C3H5N3O/c1-6-2-4-5-3(6)7/h2H,1H3,(H,5,7)
