14
gdb 373	6.84522	2.20034	1.78254	2.8538	54.01	-0.2695	0.0286	0.298	689.9612	0.119956	-266.626759	-266.619585	-266.618641	-266.657544	24.891	
C	-0.0628133228	 1.551901673	 0.024297862	-0.38775
C	 0.0144910829	 0.0244307983	 0.0057547873	-0.160829
C	 0.7679106791	-0.5153539053	-1.2269201525	-0.113333
N	 2.1605135026	-0.0602105833	-1.2283120454	-0.491556
C	 0.6448277739	-1.9888165982	-1.2983067395	 0.25175
N	 0.5933208911	-3.1431432547	-1.3476824393	-0.322986
H	 0.9355771986	 1.9932338942	-0.006284549	 0.141562
H	-0.6231572818	 1.9277767604	-0.8388545804	 0.116997
H	-0.5708683227	 1.8993708956	 0.9283035094	 0.118216
H	 0.5188134311	-0.345201593	 0.9073731717	 0.111212
H	-0.9898957014	-0.4116590455	 0.0143741539	 0.120512
H	 0.2907935509	-0.1090715454	-2.1275756369	 0.130504
H	 2.6613353923	-0.4906634236	-0.4552769351	 0.240665
H	 2.6282433461	-0.3625286124	-2.0774324962	 0.245035
96.2875	160.8216	206.7876	241.9414	276.2842	327.6461	422.4256	550.322	586.1822	776.6021	835.0887	882.9118	959.8015	1006.7536	1049.8899	1090.0611	1152.2441	1232.7629	1301.341	1326.8575	1375.8426	1393.1436	1409.4724	1483.8432	1493.6779	1509.2952	1662.5696	2343.2478	3030.1072	3040.8642	3043.6043	3079.1719	3107.6058	3134.9629	3491.9538	3572.4283
CCC(N)C#N	CC[C@@H](N)C#N	
InChI=1S/C4H8N2/c1-2-4(6)3-5/h4H,2,6H2,1H3	InChI=1S/C4H8N2/c1-2-4(6)3-5/h4H,2,6H2,1H3/t4-/m1/s1
