16
gdb 3081	3.61776	2.31558	1.94432	1.1162	67.24	-0.2214	0.0357	0.2571	748.1061	0.134592	-288.576123	-288.568173	-288.567229	-288.607726	28.931	
C	 2.0211602614	-0.8077627663	 2.6204435264	-0.421345
C	 1.1301551253	-1.1157758962	 1.4382628373	 0.012442
C	 0.1925031706	-0.0874179642	 0.8527023977	-0.210795
C	 0.1594320142	 1.2501219436	 1.3759146033	 0.356877
C	 0.10607643	 2.3790510255	 1.7903142904	-0.478249
N	 1.3548821602	-0.5960660925	 0.0965672802	-0.103328
C	 2.4783387555	 0.293730855	-0.1686734147	-0.314313
H	 2.97166905	-1.3461975285	 2.5389725347	 0.123013
H	 2.2314190863	 0.2582539985	 2.719739496	 0.136548
H	 1.5325123926	-1.1366720647	 3.5432253509	 0.126145
H	 0.7629136086	-2.1421467264	 1.4255178058	 0.094391
H	-0.761838103	-0.4295090561	 0.4566010185	 0.111959
H	 0.0537870804	 3.3733016154	 2.1596028498	 0.199192
H	 2.2953796367	 0.8072017939	-1.1174459171	 0.127868
H	 2.6600553607	 1.0576747684	 0.5978299542	 0.117416
H	 3.3816731205	-0.3136779255	-0.2816563535	 0.122179
134.086	152.5645	164.5621	166.3537	260.1878	328.1386	369.9348	481.876	584.1315	589.6616	606.9875	658.0156	713.7488	786.8442	857.7661	974.9024	1034.6911	1045.4828	1121.8539	1136.412	1163.9285	1170.3049	1192.9903	1335.4833	1361.8127	1400.2594	1420.3998	1453.6887	1483.9044	1489.0997	1498.2597	1511.388	2226.8158	3014.7096	3040.8834	3082.7543	3096.6071	3099.0487	3106.8066	3118.5114	3140.5866	3502.6461
CC1C(C#C)N1C	C[C@H]1[C@@H](C#C)N1C	
InChI=1S/C6H9N/c1-4-6-5(2)7(6)3/h1,5-6H,2-3H3	InChI=1S/C6H9N/c1-4-6-5(2)7(6)3/h1,5-6H,2-3H3/t5-,6+,7?/m0/s1
