9
gdb 769	10.01649	3.90958	2.81885	2.3205	40.14	-0.2385	-0.0191	0.2194	425.7517	0.064539	-313.573888	-313.56915	-313.568206	-313.6017	16.955	
N	-0.0250188868	 1.3457919713	 0.1576449328	-0.572973
C	-0.0144752617	-0.0223719119	 0.0498475314	 0.459858
N	-1.1064218599	-0.7837292951	 0.036335845	-0.293253
N	-0.5479107832	-1.9972195628	-0.0150317253	-0.063918
N	 0.7674541529	-2.006670126	-0.0356938282	-0.098856
N	 1.1362782422	-0.7495855785	 0.0036623242	-0.26512
H	 0.819405142	 1.7840567285	-0.1784243298	 0.268657
H	-0.8690594953	 1.7875998506	-0.1737079583	 0.266303
H	-1.0935662602	-2.8447427461	-0.0363262019	 0.299302
300.9469	335.3573	409.4148	524.3485	585.4005	720.0787	753.8129	791.3902	1019.0416	1067.0041	1101.3126	1161.981	1185.1385	1288.0721	1397.0823	1513.6367	1586.9401	1656.6598	3582.8185	3659.8423	3689.0996
NC1=NNN=N1	Nc1n[nH]nn1	
InChI=1S/CH3N5/c2-1-3-5-6-4-1/h(H3,2,3,4,5,6)	InChI=1S/CH3N5/c2-1-3-5-6-4-1/h(H3,2,3,4,5,6)
