17
gdb 4133	4.1155	1.21189	1.14795	1.485	69.05	-0.2402	-0.0019	0.2383	1097.6393	0.139498	-400.943181	-400.934351	-400.933407	-400.976632	31.904	
C	 0.8993069531	 0.9514200398	-0.7481581532	-0.430853
C	-0.0420028757	 0.1039891604	 0.067822503	 0.081925
O	 0.430577	-1.1397949607	 0.5929848642	-0.258563
C	 0.038933181	-0.1273693595	 1.5277498203	-0.011446
C	 1.0850198195	 0.4235941978	 2.4384134569	 0.341728
C	 2.5504692502	 0.2692608002	 2.146282651	-0.489289
N	 0.6083867684	 0.9765393204	 3.4910773386	-0.173606
O	 1.6187412663	 1.4937760439	 4.3095311122	-0.393785
H	 1.8877355091	 1.0333283571	-0.2960524662	 0.13272
H	 1.016030283	 0.523758034	-1.7496707811	 0.131998
H	 0.4853571628	 1.9589534969	-0.8632483759	 0.128327
H	-1.0474957249	 0.0313826964	-0.354074827	 0.094887
H	-0.9025145519	-0.3163367796	 2.0421799552	 0.104155
H	 2.705346913	-0.4639231275	 1.3552342108	 0.14468
H	 2.996178515	 1.2254640578	 1.8493926189	 0.141983
H	 3.0711446	-0.0481335906	 3.0535918233	 0.146939
H	 1.1194369411	 1.8267897934	 5.0628087791	 0.308201
57.2184	142.8011	171.4273	193.8957	219.8102	282.6028	314.7547	377.67	410.0622	449.639	491.6308	585.3245	663.3793	766.0396	801.1827	877.6765	957.1535	992.9403	1018.5947	1051.3081	1061.573	1091.8211	1157.5058	1170.3529	1270.5736	1310.996	1364.6058	1396.6134	1404.6544	1421.5971	1460.8497	1481.7698	1483.8263	1494.0631	1504.6378	1712.9188	3042.7125	3042.9481	3076.9858	3099.9903	3103.7104	3121.554	3153.7923	3159.2519	3818.1667
CC1OC1C(C)=NO	C[C@H]1O[C@H]1C(=NO)C	
InChI=1S/C5H9NO2/c1-3(6-7)5-4(2)8-5/h4-5,7H,1-2H3	InChI=1S/C5H9NO2/c1-3(6-7)5-4(2)8-5/h4-5,7H,1-2H3/t4-,5+/m1/s1
