14
gdb 4726	6.8348	1.27648	1.07711	1.9515	77.61	-0.1803	0.0037	0.184	1036.3712	0.107953	-341.585805	-341.578158	-341.577214	-341.617291	29.086	
N	-0.0369012688	 1.445362526	 0.1558233653	-0.611999
C	 0.0077134531	 0.0431764043	 0.0462877239	 0.28358
C	-1.0724107138	-0.8226150292	 0.0139888032	-0.167338
N	-0.583225711	-2.1052694588	-0.0098530141	-0.320022
C	 0.7913956185	-2.08523047	-0.0008278448	 0.208066
C	 1.1811036019	-0.751799884	 0.0371963049	-0.338877
C	 1.5541800221	-3.2675763703	-0.0267804444	 0.264148
C	 2.1946569177	-4.2892727994	-0.0505816445	-0.456252
H	 0.7472165078	 1.8889401257	-0.3051658087	 0.241939
H	-0.8938504832	 1.8373625761	-0.2130636865	 0.238185
H	-2.1321752252	-0.6256759913	 0.0145938062	 0.110658
H	-1.1349004301	-2.943905795	-0.043820117	 0.265378
H	 2.2013984034	-0.4018267627	 0.0623197936	 0.095405
H	 2.7678880977	-5.1823966713	-0.069514967	 0.18713
133.076	147.521	177.733	301.6428	359.7932	402.9481	470.197	506.2562	535.6903	549.5503	626.3483	673.0911	675.5367	685.2257	712.5913	765.3	808.2446	991.783	1002.2193	1102.3161	1132.696	1186.1541	1285.113	1341.911	1445.4496	1458.8521	1528.7439	1627.6732	1658.5862	2222.3349	3254.2225	3262.8755	3503.9798	3534.8887	3622.747	3692.6233
NC1=CNC(=C1)C#C	Nc1c[nH]c(c1)C#C	
InChI=1S/C6H6N2/c1-2-6-3-5(7)4-8-6/h1,3-4,8H,7H2	InChI=1S/C6H6N2/c1-2-6-3-5(7)4-8-6/h1,3-4,8H,7H2
