10
gdb 498	11.45832	1.83316	1.76977	3.6197	44.97	-0.2788	-0.0017	0.2772	652.22	0.073313	-301.382062	-301.375865	-301.37492	-301.412562	20.073	
O	 0.0777278245	 0.2004809795	-0.9021832408	-0.306295
C	 0.0448245365	 1.2439210405	-0.2907463185	 0.167462
N	 1.115627892	 1.8055355837	 0.3459156604	-0.277111
C	 2.4306694875	 1.1978411247	 0.2835263413	-0.27564
C	 3.4314443832	 2.0898949932	-0.3137625965	 0.256384
N	 4.2181202306	 2.8089804625	-0.7588511388	-0.293097
H	-0.8685774294	 1.8554315119	-0.1713598651	 0.096798
H	 1.0084044717	 2.6992572772	 0.798637467	 0.266699
H	 2.7805954587	 0.8938372179	 1.2772722365	 0.164218
H	 2.3239949447	 0.2946819188	-0.3254132756	 0.200583
45.5307	164.1328	272.5207	297.8791	374.2549	515.1855	569.6304	756.4414	929.5376	989.9796	1033.5658	1049.2162	1201.989	1266.6678	1371.0529	1424.4574	1469.8246	1521.5886	1810.5943	2366.1896	2968.0718	3039.7106	3100.5893	3642.2915
O=CNCC#N	O=CNCC#N	
InChI=1S/C3H4N2O/c4-1-2-5-3-6/h3H,2H2,(H,5,6)	InChI=1S/C3H4N2O/c4-1-2-5-3-6/h3H,2H2,(H,5,6)
