21
gdb 1749	4.82327	1.45351	1.31127	0.1314	74.72	-0.2614	0.0857	0.347	1032.1865	0.193984	-274.985024	-274.97643	-274.975485	-275.017739	31.994	
C	-0.0900805923	 1.5921641744	 0.1029416885	-0.378484
C	-0.0444698824	 0.0648488888	 0.2050243319	-0.163453
C	-1.3608108697	-0.5980237424	-0.2258226825	-0.243217
C	-1.3898297819	-2.1131282964	-0.0795068329	 0.393671
C	-0.4137169811	-2.8790584915	-0.9540490788	-0.460752
C	-1.6993519211	-2.6770970931	 1.2881361673	-0.293635
C	-2.7303933594	-2.7567196327	 0.1854647446	-0.314322
H	 0.8582744521	 2.042837455	 0.4121683483	 0.109477
H	-0.2921684326	 1.9146227461	-0.924711389	 0.112589
H	-0.8795501537	 2.0085685333	 0.7388939929	 0.111783
H	 0.7808843965	-0.3130051162	-0.410511591	 0.096746
H	 0.1852232353	-0.2300225846	 1.2368924682	 0.096483
H	-2.1804307549	-0.1694342474	 0.3662342476	 0.086299
H	-1.5727543624	-0.3319467154	-1.271777428	 0.088661
H	 0.6267499131	-2.6278253031	-0.7211441248	 0.116458
H	-0.5278746728	-3.9591410209	-0.8178833734	 0.109841
H	-0.5790849078	-2.6590322386	-2.0158330675	 0.111271
H	-1.2044697797	-3.593672226	 1.5921463578	 0.1052
H	-1.8788209039	-1.9825406992	 2.102642309	 0.105282
H	-3.6033375193	-2.1158644731	 0.25610308	 0.105231
H	-2.9299152918	-3.7273680268	-0.2571239483	 0.10487
83.6135	94.9975	173.969	222.1013	244.9515	300.0622	336.7143	355.3542	395.9249	469.002	720.9326	747.1409	788.5487	858.0377	876.1485	887.11	941.5458	954.3125	964.4964	1026.3506	1050.3047	1054.8493	1078.3576	1102.0897	1115.7291	1147.2809	1188.9835	1254.1985	1301.408	1315.4901	1335.1598	1367.8286	1397.5199	1410.9151	1421.1916	1469.288	1478.3053	1493.597	1494.6805	1499.2517	1501.8837	1510.1971	1513.0796	2997.7705	3022.2589	3025.6848	3027.8855	3031.8642	3060.616	3083.272	3094.5224	3098.2863	3099.9013	3122.8133	3127.7514	3199.5956	3214.2032
CCCC1(C)CC1	CCCC1(C)CC1	
InChI=1S/C7H14/c1-3-4-7(2)5-6-7/h3-6H2,1-2H3	InChI=1S/C7H14/c1-3-4-7(2)5-6-7/h3-6H2,1-2H3
