16
gdb 2019	5.62052	2.02689	1.94642	2.977	60.9	-0.2247	0.0665	0.2913	718.6605	0.137845	-325.685245	-325.678707	-325.677763	-325.715786	24.584	
O	-0.0741178354	 1.4170337448	 0.0530068787	-0.421225
C	-0.0018370384	-0.0008661891	 0.00103572	-0.225622
C	-1.4114656202	-0.5278117546	 0.0212814898	 0.336217
C	-2.564034668	-0.2650243845	-0.9762784874	-0.194531
N	-3.237000001	-1.1993699255	 0.0476213999	-0.147296
C	-1.9144289119	-1.9871311542	-0.0168079202	-0.218866
C	-2.5069636819	-0.3388996115	 1.0968037986	-0.194554
H	 0.8219947746	 1.765449201	 0.0435041689	 0.290737
H	 0.5066961927	-0.3468713875	-0.9141522452	 0.087523
H	 0.555680459	-0.4094567817	 0.860140188	 0.087538
H	-2.9977574395	 0.7370819194	-1.0060253716	 0.107965
H	-2.4887189589	-0.7000044431	-1.977383487	 0.09456
H	-1.7892512817	-2.5531244834	-0.9447221293	 0.097535
H	-1.7395857371	-2.6173403718	 0.8603013806	 0.097531
H	-2.3776092231	-0.8438108981	 2.0587991958	 0.094543
H	-2.9364326692	 0.6577045398	 1.2215335005	 0.107945
84.0262	172.421	240.3473	317.394	419.2085	582.7699	584.3541	652.291	773.46	797.5977	892.298	913.3131	940.8909	976.1229	996.4581	1022.5114	1051.2615	1074.4359	1138.4238	1165.4567	1167.058	1174.6058	1195.2073	1200.8136	1249.0635	1273.6396	1277.964	1337.8845	1465.0026	1510.8796	1511.2983	1512.4689	1565.7685	2957.3228	2985.9464	3041.6169	3047.2433	3056.0549	3107.7578	3118.9733	3123.6805	3831.6879
OCC12CN(C1)C2	OC[C@@]12CN(C1)C2	
InChI=1S/C5H9NO/c7-4-5-1-6(2-5)3-5/h7H,1-4H2	InChI=1S/C5H9NO/c7-4-5-1-6(2-5)3-5/h7H,1-4H2
