17
gdb 3572	4.57747	2.74128	2.30202	0.2625	66.53	-0.2034	0.0798	0.2833	662.318	0.149164	-272.500426	-272.494115	-272.493171	-272.530253	25.219	
C	-0.2077100535	 1.6024403594	-0.0694659997	-0.434111
C	 0.1041751612	 0.1081735355	 0.0287439264	-0.002404
C	 1.3518363571	-0.6653562184	-0.327575906	-0.086071
C	 2.7096757483	-0.1186419284	 0.1947439229	-0.050459
C	 2.6385972557	 1.1540459496	 0.9960279615	-0.300781
C	 2.1746425672	-0.1369380574	 1.6164503734	-0.050453
C	 0.8139749502	-0.6837239777	 1.1016252072	-0.086071
H	 0.4639601077	 2.1246377575	-0.7564898535	 0.12922
H	-1.2245238196	 1.7393577878	-0.4505330109	 0.108395
H	-0.1602499582	 2.1033184154	 0.9014644165	 0.129215
H	-0.7490819654	-0.4854890195	-0.299978194	 0.089231
H	 1.3231410008	-1.467062174	-1.0558743969	 0.082198
H	 3.6519363658	-0.5094230112	-0.1673019275	 0.084922
H	 3.6078197443	 1.4803794901	 1.3649675725	 0.107871
H	 1.9756817377	 1.9715178242	 0.7570896049	 0.112177
H	 2.647791595	-0.5437821274	 2.5008994753	 0.084921
H	 0.3190693157	-1.5013439356	 1.612056908	 0.082198
107.4842	239.1469	270.7764	382.1234	468.4356	650.0996	675.0296	686.5677	698.7339	750.4442	860.6656	883.8034	888.1157	912.1736	941.1414	1009.6798	1010.7598	1030.1839	1055.2098	1070.0835	1081.3206	1088.0313	1090.4588	1131.0931	1180.7167	1229.1772	1264.2958	1296.9407	1330.8614	1359.3239	1414.6283	1443.0496	1490.5576	1503.4442	1515.7274	3038.5462	3089.5623	3109.473	3111.5304	3134.2875	3168.2657	3178.9126	3186.2658	3197.3794	3250.9516
CC1C2C3CC3C12	C[C@H]1[C@H]2[C@H]3C[C@H]3[C@@H]12	
InChI=1S/C7H10/c1-3-6-4-2-5(4)7(3)6/h3-7H,2H2,1H3	InChI=1S/C7H10/c1-3-6-4-2-5(4)7(3)6/h3-7H,2H2,1H3/t3-,4-,5+,6-,7+
