11
gdb 2824	4.86435	2.09042	1.6659	3.6354	53.08	-0.2798	-0.0285	0.2512	707.8148	0.078152	-339.431092	-339.424612	-339.423668	-339.46188	21.987	
O	 0.1100557127	 0.2486415828	-0.4655235828	-0.263248
C	 0.1298455875	 1.3921542022	-0.0975401932	 0.150873
N	 1.2209105553	 1.980758055	 0.5496698113	-0.064419
C	 2.5840491718	 1.8011780083	 0.1337612427	-0.225673
C	 1.9288511971	 3.1658789686	 0.0869615446	-0.16439
C	 1.6040366624	 3.745596755	-1.1956029154	 0.296036
N	 1.3332723131	 4.2285120675	-2.2105493516	-0.31159
H	-0.7300782526	 2.0819971847	-0.1613409462	 0.112697
H	 3.3089032243	 1.6070452289	 0.9183623032	 0.150096
H	 2.7539305135	 1.2919114305	-0.8106478405	 0.165331
H	 2.1700953448	 3.8941722565	 0.8563717178	 0.154288
89.2974	170.3908	195.9363	274.6383	336.9522	534.7349	561.9722	657.8744	784.7468	864.14	958.6123	1030.7742	1040.0481	1070.1489	1114.428	1134.8963	1161.6571	1351.3005	1394.5528	1413.9939	1505.7217	1816.3912	2358.9306	2988.2799	3122.3512	3152.9875	3218.8264
O=CN1CC1C#N	O=CN1C[C@H]1C#N	
InChI=1S/C4H4N2O/c5-1-4-2-6(4)3-7/h3-4H,2H2	InChI=1S/C4H4N2O/c5-1-4-2-6(4)3-7/h3-4H,2H2/t4-,6?/m1/s1
