8
gdb 3819	9.70083	2.01163	1.66613	3.2279	47.9	-0.3035	-0.0791	0.2244	642.03	0.043828	-354.275774	-354.270546	-354.269602	-354.304892	18.046	
N	 0.0266029043	-1.1432879365	-0.0039046152	-0.31267
C	 0.002908076	 0.0131766964	 0.0027252696	 0.244801
C	-0.0523922458	 1.4267741285	 0.0112498921	 0.167917
C	-1.132653459	 2.2631032378	 0.0304765959	-0.024053
O	-0.7158137312	 3.510464364	 0.0317364358	-0.151216
N	 0.7442822763	 3.4451069549	 0.0115181325	 0.022492
N	 1.0675623185	 2.2427165988	 0.0003897404	-0.149229
H	-2.1947747391	 2.0776604261	 0.0438879489	 0.201958
180.7013	186.3291	501.8151	514.9422	556.582	582.6963	636.4229	713.3047	890.3901	968.6248	1029.4491	1165.6511	1247.7128	1332.9473	1505.2255	1575.6576	2365.2723	3284.7212
N#CC1=CON=N1	N#Cc1conn1	
InChI=1S/C3HN3O/c4-1-3-2-7-6-5-3/h2H	InChI=1S/C3HN3O/c4-1-3-2-7-6-5-3/h2H
