10
gdb 3903	5.97394	2.93196	1.96671	1.6216	50.96	-0.2549	-0.088	0.1669	579.5407	0.069709	-355.517745	-355.512683	-355.511739	-355.546612	18.485	
O	-0.0192380482	-0.0766142407	 0.003523027	-0.372256
C	 0.0041519655	 1.1375875676	 0.0091434191	 0.399361
N	-1.1542653113	 1.9124318651	 0.0283281677	-0.246223
N	-1.2284652741	 3.25079629	 0.0360758328	-0.17009
C	-0.0874972388	 3.8735076145	 0.0242706503	 0.086496
N	 1.1562631446	 3.2894747844	 0.005068521	-0.215032
C	 1.1978477286	 1.9961293848	-0.0019955025	-0.062941
H	-2.0424073765	 1.4257459994	 0.0375483837	 0.28446
H	-0.1263372536	 4.9554556662	 0.030224851	 0.145077
H	 2.1622307037	 1.4919227286	-0.0171200902	 0.151148
161.7091	396.6454	434.1835	505.8956	577.9092	610.6101	747.2286	766.3324	824.8674	918.0927	979.7538	1002.2498	1110.6572	1173.6147	1252.3215	1362.1284	1399.9519	1422.7684	1550.6459	1635.3653	1801.7343	3161.0626	3223.3153	3579.8722
O=C1NN=CN=C1	O=c1[nH]ncnc1	
InChI=1S/C3H3N3O/c7-3-1-4-2-5-6-3/h1-2H,(H,6,7)	InChI=1S/C3H3N3O/c7-3-1-4-2-5-6-3/h1-2H,(H,6,7)
