15
gdb 1707	3.88642	2.40931	1.94777	1.1014	62.65	-0.2553	0.0316	0.2869	715.7321	0.12361	-308.47001	-308.462763	-308.461819	-308.50084	27.388	
O	 0.1634812936	 1.5273770128	-0.265714523	-0.462533
C	 0.003638995	 0.1499814906	 0.0165251415	 0.260021
C	 0.1529827665	-0.2992713979	 1.5132381239	-0.267887
C	-1.163095474	-1.1056958386	 1.3643939836	-0.210814
C	-1.4931853071	-0.2682419282	 0.1016740495	-0.25055
C	 0.7911875147	-0.6746271405	-0.8956666254	 0.297004
C	 1.4730960861	-1.3305492344	-1.6385408566	-0.505201
H	 1.0901014061	 1.6851311137	-0.4768368815	 0.282058
H	 1.0632929387	-0.8326565913	 1.7926499384	 0.10301
H	 0.0268633552	 0.578647686	 2.1519752856	 0.111004
H	-0.9735252767	-2.153618206	 1.1206384691	 0.113464
H	-1.8727699304	-1.0607080628	 2.1918951744	 0.103159
H	-2.0846119453	 0.6192653992	 0.3403270149	 0.117537
H	-1.9217321119	-0.7705530316	-0.7665356244	 0.109121
H	 2.0635874195	-1.9140663809	-2.3010617098	 0.200608
118.0587	180.5448	194.3021	262.9368	354.5727	402.756	505.7306	550.4375	614.8617	645.4316	667.95	694.5442	792.7308	861.262	915.1847	934.4781	978.5578	1008.019	1041.9804	1113.9098	1193.5654	1198.201	1246.5331	1257.0353	1275.4155	1286.7177	1368.1475	1467.4639	1483.6588	1503.443	2226.5553	3066.3371	3071.9099	3075.2664	3118.1928	3131.5988	3140.1849	3500.4851	3809.4545
OC1(CCC1)C#C	OC1(CCC1)C#C	
InChI=1S/C6H8O/c1-2-6(7)4-3-5-6/h1,7H,3-5H2	InChI=1S/C6H8O/c1-2-6(7)4-3-5-6/h1,7H,3-5H2
