17
gdb 3387	5.19751	2.10665	2.01691	1.0961	63.97	-0.2385	0.0879	0.3264	733.924	0.14887	-309.673895	-309.667043	-309.666099	-309.70461	25.538	
C	 0.086315336	 1.0642265901	-0.3201596612	-0.234009
O	-0.130821734	-0.0341050836	 0.5416801907	-0.238257
C	-1.349325572	-0.6688671175	 0.3069617868	 0.143352
C	-1.5411609194	-1.6785159643	-0.7896469248	-0.110626
C	-0.2509386755	-2.4788576306	-1.013231675	-0.221646
C	-0.2467172467	-2.8889899979	 0.4928967706	-0.215995
C	-1.5371874411	-2.0878467357	 0.7088588855	-0.113774
H	 1.0668147508	 1.4795239326	-0.0752860161	 0.125116
H	 0.0754584474	 0.7609478372	-1.3768624821	 0.110322
H	-0.6756106126	 1.8463362815	-0.1783907676	 0.103728
H	-2.2175648435	-0.0279028452	 0.4780738969	 0.079342
H	-2.3717768029	-1.6186404766	-1.4839892093	 0.080375
H	-0.3982233901	-3.3352988216	-1.6742845455	 0.100333
H	 0.6115528988	-1.9066710342	-1.3666698309	 0.099583
H	-0.3936088985	-3.9623914796	 0.6282167308	 0.098796
H	 0.6121393763	-2.5670224308	 1.086309704	 0.10964
H	-2.361575043	-2.390758794	 1.3443036773	 0.08372
107.6963	179.3036	182.4008	251.2331	307.4807	505.7064	574.3314	733.9671	759.6588	791.2748	814.0704	917.8338	959.5784	965.7827	983.0803	1018.2209	1025.1002	1078.941	1094.1751	1130.1725	1152.7844	1182.6149	1194.8991	1229.5992	1247.362	1251.0465	1267.0054	1302.6729	1347.2168	1429.2029	1474.8413	1483.852	1485.9445	1501.7773	1510.7065	2980.1823	3032.0229	3056.9954	3068.9832	3076.652	3104.4533	3116.2955	3124.5147	3166.5034	3178.0317
COC1C2CCC12	CO[C@H]1[C@H]2CC[C@@H]12	
InChI=1S/C6H10O/c1-7-6-4-2-3-5(4)6/h4-6H,2-3H2,1H3	InChI=1S/C6H10O/c1-7-6-4-2-3-5(4)6/h4-6H,2-3H2,1H3/t4-,5+,6-
