15
gdb 2280	8.16125	1.40108	1.27457	3.6035	57.95	-0.2459	-0.0229	0.223	913.251	0.124044	-345.641113	-345.633819	-345.632875	-345.673766	24.586	
O	-0.5357847333	 0.5592507357	 0.6255404533	-0.239715
C	 0.1730660358	 0.92019364	-0.2793368004	 0.154336
C	 1.3717907777	 1.8327323701	-0.1163274478	-0.292257
C	 1.2903033796	 3.050159488	-1.0349032132	 0.150864
C	 2.5621219597	 3.9077360537	-1.2179936961	-0.295952
C	 2.4108381857	 3.5521469718	-2.7112578256	-0.058997
O	 1.2933263865	 2.6798176786	-2.4344680755	-0.293131
H	-0.0157484713	 0.5976704873	-1.3258591945	 0.099044
H	 1.4424245623	 2.1415308525	 0.9314440895	 0.120697
H	 2.2722168934	 1.2612999469	-0.3809572946	 0.118679
H	 0.3942740993	 3.6393387776	-0.7943680086	 0.088114
H	 2.4702847979	 4.9631072954	-0.9592442339	 0.117106
H	 3.4515623053	 3.4947681662	-0.7378761659	 0.114349
H	 2.1220624854	 4.3874778897	-3.3609486191	 0.107522
H	 3.2447504358	 3.0141089263	-3.1757096477	 0.109341
53.4713	77.5135	90.3529	198.4889	350.2098	423.4504	501.4727	732.268	805.5964	818.9301	879.7536	937.0814	966.8246	992.4903	1024.3524	1090.5492	1099.7923	1139.6313	1168.0435	1210.1742	1231.2339	1257.7669	1280.0936	1304.8664	1366.2723	1389.2384	1424.0045	1448.9074	1490.9278	1532.4611	1830.4	2907.1487	3002.0855	3021.5641	3023.0119	3063.9072	3079.9261	3097.5482	3137.1713
O=CCC1CCO1	O=CC[C@H]1CCO1	
InChI=1S/C5H8O2/c6-3-1-5-2-4-7-5/h3,5H,1-2,4H2	InChI=1S/C5H8O2/c6-3-1-5-2-4-7-5/h3,5H,1-2,4H2/t5-/m0/s1
