16
gdb 4816	4.94689	1.36589	1.08492	2.2895	67.69	-0.2113	0.0378	0.2491	1066.5069	0.131292	-379.950921	-379.942685	-379.941741	-379.984613	28.481	
C	-0.0025179559	 1.4633273642	-0.0068520816	-0.336876
N	-0.0018505054	 0.016192581	 0.0281670589	 0.018927
C	-0.0402793766	-0.8274527505	-1.0411684975	-0.007012
N	-0.0247600179	-2.0911161093	-0.6816515482	-0.333739
C	 0.0274129185	-2.0715394009	 0.6931345361	 0.274005
C	 0.0596280487	-3.3357550692	 1.4886148806	-0.183412
O	 0.1082214312	-2.9960287958	 2.8665998139	-0.421128
C	 0.0421840089	-0.7813716683	 1.1540606636	-0.193833
H	 0.9115386343	 1.8676398816	 0.4394859541	 0.14395
H	-0.0570303381	 1.7935021919	-1.0461092205	 0.143611
H	-0.8648370012	 1.8677306532	 0.5323884383	 0.144078
H	-0.0792573079	-0.4559425734	-2.0552150207	 0.121362
H	-0.8313748879	-3.9398707512	 1.2522974804	 0.102671
H	 0.9347612488	-3.9348983606	 1.1888473458	 0.102613
H	 0.1328471491	-3.8124407097	 3.3724947995	 0.289291
H	 0.0786429312	-0.3712341929	 2.1483094871	 0.135492
41.0471	80.3198	160.4519	167.3834	219.9831	292.3429	347.5351	469.4909	627.8768	631.4946	680.4729	737.7657	751.4266	817.3346	1001.3395	1048.7019	1054.9566	1081.3254	1087.1362	1151.9178	1164.8265	1220.9626	1232.4787	1260.3916	1309.3665	1393.4705	1410.8958	1454.2382	1472.7538	1482.2072	1515.0334	1519.5051	1540.67	1610.1681	2964.9516	2983.9566	3038.0314	3097.8554	3134.414	3240.0098	3289.4475	3844.5685
CN1C=NC(CO)=C1	Cn1cnc(CO)c1	
InChI=1S/C5H8N2O/c1-7-2-5(3-8)6-4-7/h2,4,8H,3H2,1H3	InChI=1S/C5H8N2O/c1-7-2-5(3-8)6-4-7/h2,4,8H,3H2,1H3
