13
gdb 460	6.95109	3.605	2.72215	1.8411	49.49	-0.246	0.0261	0.2721	504.1131	0.109554	-286.510514	-286.504912	-286.503968	-286.539796	19.819	
C	-0.1875361387	 1.5483985282	-0.0015224394	-0.396727
C	 0.07229417	 0.0511345788	 0.0166833042	 0.113356
C	 0.9452326913	-0.4820790606	-1.1540812291	-0.192434
N	 2.1643700861	-1.0161526732	-0.5211874978	-0.262577
C	 1.9974828955	-0.8558646542	 0.7241073334	 0.122525
O	 0.8641487372	-0.2873843153	 1.1949494463	-0.230837
H	 0.7540120674	 2.1008437961	-0.0814498065	 0.129414
H	-0.8130444335	 1.8082348907	-0.8619794537	 0.122652
H	-0.7027820073	 1.8688477128	 0.9080091098	 0.130441
H	-0.8700079159	-0.4978928383	 0.1094746394	 0.094257
H	 0.4474514051	-1.2731170793	-1.7242119199	 0.117336
H	 1.2106716005	 0.3121861877	-1.8613440684	 0.113784
H	 2.7073449821	-1.1405681236	 1.4932744417	 0.138808
71.1145	240.3942	329.8273	418.5027	523.6257	706.6238	818.2934	861.0528	928.0508	938.0656	967.4025	978.3183	1063.2818	1119.6024	1132.7862	1143.3346	1230.6877	1309.545	1320.071	1352.8128	1383.6168	1410.18	1485.791	1494.8164	1502.926	1710.2236	3034.9863	3039.1958	3051.5856	3075.3839	3111.479	3121.8721	3213.0696
CC1CN=CO1	C[C@H]1CN=CO1	
InChI=1S/C4H7NO/c1-4-2-5-3-6-4/h3-4H,2H2,1H3	InChI=1S/C4H7NO/c1-4-2-5-3-6-4/h3-4H,2H2,1H3/t4-/m0/s1
