10
gdb 35	26.14564	4.2893	4.12773	2.6741	35.83	-0.25	-0.0205	0.2295	333.3276	0.084175	-193.075202	-193.070116	-193.069171	-193.102798	15.954	
C	 0.1687934049	 1.5251304224	-0.1574705569	-0.387341
C	-0.1873762459	 0.0619476271	 0.1467937419	-0.250334
C	 0.5091764497	-0.4399621499	 1.3912584954	 0.17153
O	 1.1819107901	-1.4356558471	 1.458163841	-0.235438
H	 1.2312651068	 1.6313725408	-0.396326927	 0.133699
H	-0.4074466801	 1.8943168107	-1.0096924649	 0.129417
H	-0.0493103389	 2.1726626043	 0.6985743244	 0.125051
H	-1.2690515996	-0.0166806666	 0.3285443317	 0.121908
H	 0.0627906152	-0.6025047855	-0.6847403572	 0.124193
H	 0.3538484078	 0.2066337038	 2.2887105216	 0.067314
84.0534	210.6406	323.8631	504.4198	756.6813	872.6114	919.673	1013.4244	1135.0245	1155.6811	1271.3068	1322.9809	1410.5121	1431.3844	1464.7641	1500.3785	1505.3035	1839.1886	2842.2409	3016.0991	3040.2833	3094.2875	3113.6928	3119.9529
CCC=O	CCC=O	
InChI=1S/C3H6O/c1-2-3-4/h3H,2H2,1H3	InChI=1S/C3H6O/c1-2-3-4/h3H,2H2,1H3
