14
gdb 663	6.56573	4.1169	3.18137	1.7554	52.42	-0.2393	0.0766	0.3159	472.7184	0.121217	-270.393737	-270.3886	-270.387656	-270.422285	19.228	
C	-0.0642238444	 1.501708801	-0.2049437255	-0.227255
C	 1.4330000724	 1.5675131129	 0.2379782443	-0.225993
C	 1.4115017485	 0.0444591771	 0.4931019153	 0.131481
O	 1.0092627218	-0.293720487	 1.8374176575	-0.292697
C	-0.3629139266	-0.4999374366	 1.4264427608	-0.072808
C	-0.0601380665	-0.0406668767	-0.0079380605	-0.070867
H	-0.7751672922	 2.0424132509	 0.4261508395	 0.101567
H	-0.2258572018	 1.8098759417	-1.240209944	 0.103826
H	 2.1086256567	 1.8638286483	-0.5694514102	 0.099909
H	 1.6596752423	 2.1607509514	 1.1264903562	 0.110933
H	 2.2488111858	-0.567370543	 0.1455809124	 0.071914
H	-0.6493964163	-1.5559639142	 1.5191235663	 0.098147
H	-1.0697407644	 0.1123220264	 2.0018442284	 0.097611
H	-0.4062586453	-0.6660364022	-0.8297724404	 0.074232
100.6622	333.9419	383.8819	671.8063	730.2469	780.9404	823.4881	880.1697	919.9635	943.3391	954.3215	993.5916	1020.0766	1054.8199	1086.0852	1147.8669	1170.2489	1184.4331	1204.8613	1240.4762	1265.8467	1275.9884	1304.2988	1324.1958	1364.1441	1461.832	1488.3978	1522.8696	3001.3731	3043.6172	3055.0704	3058.6566	3069.7674	3102.896	3118.2889	3125.7465
C1CC2OCC12	C1C[C@H]2OC[C@@H]12	
InChI=1S/C5H8O/c1-2-5-4(1)3-6-5/h4-5H,1-3H2	InChI=1S/C5H8O/c1-2-5-4(1)3-6-5/h4-5H,1-3H2/t4-,5-/m1/s1
