10
gdb 337	6.90658	2.63327	2.09593	2.1664	45.31	-0.2709	-0.0493	0.2216	567.4229	0.070272	-305.130184	-305.123844	-305.1229	-305.160099	21.821	
O	 0.0171422438	 1.5095398233	 0.0955325118	-0.408595
C	 0.0188004722	 0.1100593857	 0.0804103223	-0.097412
C	 0.6837159554	-0.4103331069	-1.2011573956	 0.142528
O	 1.1404595353	 0.3511707609	-2.0133373503	-0.246464
C	 0.7163193634	-0.4887770328	 1.2240887295	 0.314535
C	 1.3055051054	-1.0031844321	 2.13608685	-0.461871
H	 0.5392648868	 1.7751869846	-0.679206027	 0.299533
H	-1.0196124496	-0.2657608418	 0.0705508458	 0.127903
H	 0.7239726705	-1.5094584976	-1.3186976223	 0.119137
H	 1.8165411468	-1.4447018832	 2.9563153759	 0.210706
95.8869	178.971	265.2655	311.2152	411.5812	480.8251	551.0312	632.7512	686.5425	725.7209	819.3284	973.8568	1020.6865	1142.6509	1240.0707	1327.62	1388.2577	1431.0321	1823.7717	2233.5313	2953.9085	2969.4929	3500.4493	3681.5785
OC(C=O)C#C	O[C@@H](C=O)C#C	
InChI=1S/C4H4O2/c1-2-4(6)3-5/h1,3-4,6H	InChI=1S/C4H4O2/c1-2-4(6)3-5/h1,3-4,6H/t4-/m1/s1
