12
gdb 443	7.42718	3.57756	2.48815	3.5709	52.33	-0.2366	-0.0429	0.1938	505.106	0.097695	-269.27132	-269.266149	-269.265204	-269.299973	18.812	
O	-0.0113829936	-0.0207674406	 0.0038936122	-0.329898
C	-0.0059559799	 1.1878287682	 0.0099743788	 0.382509
C	-1.2483222674	 2.0972744298	 0.0315301298	-0.322595
C	-0.7025694602	 3.5381304759	 0.0312555041	-0.264382
C	 0.7967928763	 3.3621447108	 0.0100087026	-0.040104
C	 1.1780616933	 2.0801332513	-0.0016178573	-0.169816
H	-1.8719895152	 1.8747167969	-0.8388969581	 0.134589
H	-1.8478627306	 1.8659692452	 0.916512567	 0.134593
H	-1.0383985673	 4.1186682373	-0.8365610872	 0.122758
H	-1.0146545231	 4.1100366705	 0.9135432844	 0.122753
H	 1.468957036	 4.214090451	 0.0051644007	 0.115073
H	 2.1906191216	 1.6981133236	-0.017306127	 0.114519
104.5758	297.2015	463.1307	545.4106	628.7564	757.5516	778.5881	822.023	829.9542	921.9284	998.3942	1008.1498	1029.9685	1109.963	1152.8212	1176.0191	1232.3056	1253.3498	1322.6193	1365.1659	1450.6494	1481.4802	1652.3012	1816.3622	3032.232	3056.8575	3069.0833	3109.5905	3187.7641	3229.0565
O=C1CCC=C1	O=C1CCC=C1	
InChI=1S/C5H6O/c6-5-3-1-2-4-5/h1,3H,2,4H2	InChI=1S/C5H6O/c6-5-3-1-2-4-5/h1,3H,2,4H2
