13
gdb 4479	3.56561	1.88936	1.24457	1.1138	56.88	-0.1979	0.0318	0.2297	903.022	0.095405	-435.780618	-435.773197	-435.772253	-435.81212	27.032	
C	 0.1494351927	 1.5145126856	 0.1355922478	-0.500837
C	-0.0281699955	 0.0508538213	 0.0172379228	 0.224441
C	-1.064428104	-0.7881949075	-0.213104273	 0.252944
O	-2.3575675493	-0.4641232901	-0.4186115478	-0.433575
N	-0.6470524871	-2.1144938595	-0.2198010852	-0.464146
C	 0.6249828245	-2.0104903474	 0.0076050446	 0.475828
O	 1.5245634649	-2.9863523753	 0.1056956093	-0.3973
O	 1.0989654716	-0.7791825215	 0.1636150528	-0.201677
H	 0.8372671993	 1.911861584	-0.6206986192	 0.134235
H	-0.8215312793	 1.9961157979	-0.0045808224	 0.148589
H	 0.5344082071	 1.8079370526	 1.1198062494	 0.134233
H	-2.8341203931	-1.2915546043	-0.5509047717	 0.305142
H	 1.0515316982	-3.8175922459	-0.0260707471	 0.322121
141.3729	183.8342	241.4662	244.0996	305.6124	332.1439	377.6334	428.6521	554.2229	636.7362	657.0136	684.4434	750.5487	829.7411	969.9235	1054.2293	1070.142	1120.4976	1191.4496	1217.591	1322.0701	1397.8246	1430.7408	1471.4047	1491.06	1514.9595	1654.4909	1761.9484	3019.5564	3065.112	3124.3656	3813.2493	3819.8165
CC1=C(O)N=C(O)O1	Cc1c(O)nc(O)o1	
InChI=1S/C4H5NO3/c1-2-3(6)5-4(7)8-2/h6H,1H3,(H,5,7)	InChI=1S/C4H5NO3/c1-2-3(6)5-4(7)8-2/h6H,1H3,(H,5,7)
