11
gdb 3026	16.63095	1.03593	1.02913	1.6841	69.92	-0.2483	-0.0324	0.2159	1065.9116	0.076513	-306.032266	-306.025433	-306.024488	-306.063177	24.009	
C	 0.042944964	-3.7611025341	-0.055289441	-0.555214
C	 0.0380496431	-2.5539829754	-0.0231169482	 0.300611
C	 0.0316327538	-1.1950651261	 0.012322788	-0.249333
C	 0.0310323591	 0.0149324008	 0.0527252237	 0.462705
C	-0.0066261008	 1.4485455354	 0.0721226164	-0.17541
C	 0.5192209206	 2.2226295307	 1.2171104842	-0.157423
O	 1.2483442332	 2.1460824298	 0.0011796957	-0.206431
H	 0.0483974617	-4.8225726806	-0.083448774	 0.196734
H	-0.7974957192	 1.9015106222	-0.5249237212	 0.126841
H	 0.0737283552	 3.1902478645	 1.4440979749	 0.125525
H	 0.9505554594	 1.6866551927	 2.0600353116	 0.131394
98.7909	108.2455	249.0304	259.6348	459.2784	489.15	533.5216	544.8591	598.4782	609.7444	692.2643	833.3022	893.638	990.2849	1081.0063	1151.6898	1158.8413	1195.6826	1280.6129	1403.2843	1517.9001	2183.5029	2359.6134	3088.4072	3116.5948	3184.0605	3503.711
C#CC#CC1CO1	C#CC#C[C@H]1CO1	
InChI=1S/C6H4O/c1-2-3-4-6-5-7-6/h1,6H,5H2	InChI=1S/C6H4O/c1-2-3-4-6-5-7-6/h1,6H,5H2/t6-/m0/s1
