10
gdb 4296	4.23219	2.06323	1.38704	4.6263	50.15	-0.2731	-0.0562	0.2169	776.0371	0.061981	-450.653146	-450.647212	-450.646268	-450.68374	21.322	
O	-0.1116149464	 1.2948997812	 0.0102069101	-0.36866
C	 0.045595655	-0.0183088854	 0.0023798932	 0.517226
N	 1.1823293091	-0.5942651455	-0.0069573864	-0.419908
C	 1.2134905291	-2.0031210881	-0.0146886325	 0.403766
O	 2.2409937652	-2.6201839707	-0.0236243562	-0.310131
N	-0.0499664911	-2.6873924819	-0.0113619994	-0.278874
C	-1.0999932365	-1.9916682026	-0.0018884493	 0.135375
O	-1.1637636622	-0.6162135022	 0.0057940716	-0.179016
H	 0.7791883548	 1.6768488413	 0.0073324773	 0.330797
H	-2.102496567	-2.4079452161	 0.0014138614	 0.169425
81.3684	196.2929	387.2497	427.2864	543.9302	577.9918	582.7361	593.2319	758.5353	790.337	824.5859	919.5966	950.3319	973.1968	1034.4183	1218.6275	1278.9597	1393.8922	1459.7562	1643.2723	1755.2864	1850.7113	3201.5564	3763.3739
OC1=NC(=O)N=CO1	Oc1nc(=O)nco1	
InChI=1S/C3H2N2O3/c6-2-4-1-8-3(7)5-2/h1H,(H,5,6,7)	InChI=1S/C3H2N2O3/c6-2-4-1-8-3(7)5-2/h1H,(H,5,6,7)
