16
gdb 1964	7.16538	1.53135	1.36524	3.894	61.85	-0.2462	0.0378	0.284	894.6601	0.136738	-325.808333	-325.800958	-325.800014	-325.840001	26.64	
C	 0.0646998125	 1.550861973	-0.0933907533	-0.385301
C	-0.1354496215	 0.0407721925	 0.0635755951	-0.180298
C	 0.6444314466	-0.5484574889	 1.2326252151	 0.079631
C	 0.7316293993	-2.1014400597	 1.3275110951	-0.410937
C	 2.2643042525	-1.91601963	 1.2044628112	 0.430863
O	 3.2304502834	-2.6293546431	 1.2227345043	-0.358014
N	 2.1103988876	-0.5552233483	 1.0785952434	-0.326701
H	 1.1163324401	 1.7924058925	-0.2828344976	 0.115332
H	-0.5181786479	 1.9424092662	-0.9320164632	 0.121955
H	-0.2456213107	 2.0897954456	 0.8088106897	 0.117401
H	-1.1996117308	-0.1793471175	 0.2170558047	 0.103609
H	 0.1669848874	-0.4748970253	-0.8561420336	 0.103068
H	 0.32781972	-0.0799994816	 2.1736178305	 0.081577
H	 0.4121765055	-2.5396145588	 2.2744293278	 0.130899
H	 0.2730940748	-2.6427697932	 0.4974020788	 0.128833
H	 2.7938662411	 0.1875979168	 1.081848632	 0.248084
73.6151	107.1205	208.4263	237.5831	357.8043	392.5545	440.2081	513.1341	564.9637	708.8402	793.4455	809.264	931.9788	944.4239	964.534	1007.3779	1065.6433	1085.4445	1105.4203	1170.8703	1191.0564	1203.7041	1266.8777	1300.2567	1347.7921	1383.7796	1407.98	1413.5915	1460.6806	1478.1018	1500.9028	1506.2572	1896.1037	3017.448	3024.6566	3031.8736	3063.0905	3084.5551	3098.5098	3108.6058	3143.3174	3609.2823
CCC1CC(=O)N1	CC[C@H]1CC(=O)N1	
InChI=1S/C5H9NO/c1-2-4-3-5(7)6-4/h4H,2-3H2,1H3,(H,6,7)	InChI=1S/C5H9NO/c1-2-4-3-5(7)6-4/h4H,2-3H2,1H3,(H,6,7)/t4-/m0/s1
