17
gdb 2245	4.4427	2.59907	2.1185	1.2444	63.15	-0.2494	0.0836	0.3331	683.5982	0.150087	-309.719641	-309.713259	-309.712315	-309.749314	25.709	
O	-0.0653447555	 1.4068285359	-0.1927663532	-0.473248
C	-0.0131031045	 0.0297356969	 0.0378033546	 0.419449
C	-0.2577079917	-0.9215745402	-1.1079747974	-0.354634
C	-1.2867708895	-0.7688646625	 0.0019540208	-0.060506
C	-1.2556722185	-1.7744653221	 1.1423683756	-0.210248
C	 0.2369423684	-1.8559762928	 1.5511000725	-0.223823
C	 0.8268101316	-0.4696262268	 1.2068566236	-0.269701
H	 0.7507572727	 1.6646290227	-0.6348750002	 0.279245
H	-0.5163772174	-0.4577149703	-2.0535297088	 0.109395
H	 0.318445008	-1.8378330488	-1.1952731322	 0.104344
H	-2.2198421756	-0.2797463164	-0.2534472006	 0.088938
H	-1.8601741458	-1.3927022397	 1.9739866884	 0.100759
H	-1.6626703597	-2.7547165956	 0.8713974178	 0.095208
H	 0.3679256559	-2.1156072168	 2.6047137307	 0.098578
H	 0.74346414	-2.6346869393	 0.9719957902	 0.103989
H	 1.9001252946	-0.51374497	 0.9873544589	 0.086347
H	 0.6896182772	 0.2343670659	 2.0362011391	 0.105907
215.782	238.012	290.6975	357.7209	389.9974	449.1334	551.8929	619.6571	687.9017	810.4187	834.0833	886.7775	893.879	920.6426	946.3713	968.0347	996.972	1039.0434	1063.1938	1075.7966	1114.5599	1166.2855	1197.1661	1240.4409	1259.2551	1268.8066	1317.2943	1328.083	1338.5866	1353.7964	1410.2378	1483.9777	1491.3836	1495.0961	1517.8288	3028.5401	3031.4464	3049.7699	3068.1445	3070.9978	3100.0586	3124.0965	3177.3752	3214.4682	3797.0614
OC12CC1CCC2	O[C@]12C[C@H]1CCC2	
InChI=1S/C6H10O/c7-6-3-1-2-5(6)4-6/h5,7H,1-4H2	InChI=1S/C6H10O/c7-6-3-1-2-5(6)4-6/h5,7H,1-4H2/t5-,6-/m1/s1
