17
gdb 3199	3.92969	3.29082	2.83611	1.4252	61.78	-0.2501	0.0772	0.3273	603.2163	0.15266	-309.738888	-309.73343	-309.732485	-309.767907	22.298	
C	-0.0287531037	 1.5728062391	-0.006758256	-0.213254
C	 1.4871205724	 1.9384962486	-0.0199018043	-0.213254
C	 2.1282997899	 0.5324377246	 0.016233626	 0.087668
C	 1.9856204542	-0.0758040984	 1.4301317413	-0.213256
C	 0.4697497432	-0.441506598	 1.4432662504	-0.213252
C	 0.0423101523	 0.0292131858	 0.0343209082	 0.087666
O	 1.2069923798	-0.2516917343	-0.7563041869	-0.263138
H	-0.5673248261	 1.9911032162	 0.8476043592	 0.095621
H	-0.5271567477	 1.9113213114	-0.9179602552	 0.103313
H	 1.761370714	 2.4634174716	-0.9377973802	 0.103313
H	 1.789673043	 2.5596987571	 0.8271735441	 0.095621
H	 3.1239407636	 0.4629921127	-0.422522341	 0.072543
H	 2.6101744528	-0.9663146495	 1.531176285	 0.103313
H	 2.2682736881	 0.6257581743	 2.2193626967	 0.095621
H	 0.3216520812	-1.5184259305	 1.5509711436	 0.103313
H	-0.088708542	 0.0571095829	 2.2398044234	 0.095621
H	-0.819215155	-0.4882487934	-0.3883353942	 0.072543
150.1136	326.2261	396.3317	552.0265	585.0727	763.0996	802.623	809.3595	833.0157	836.1616	889.9306	918.5838	933.3452	962.6599	979.2938	1012.1151	1021.9519	1029.4929	1097.6961	1119.3975	1176.4374	1218.6315	1231.5865	1232.4005	1280.2768	1291.6345	1300.758	1306.2184	1334.543	1346.7368	1363.1248	1477.3234	1490.4631	1497.4534	1513.6186	3058.2347	3060.8518	3067.4357	3070.9795	3097.5215	3100.2091	3115.6803	3116.5904	3117.8012	3125.1731
C1CC2CCC1O2	C1C[C@H]2CC[C@@H]1O2	
InChI=1S/C6H10O/c1-2-6-4-3-5(1)7-6/h5-6H,1-4H2	InChI=1S/C6H10O/c1-2-6-4-3-5(1)7-6/h5-6H,1-4H2/t5-,6+
