14
gdb 1740	5.41407	1.79584	1.66637	3.0985	57.47	-0.275	0.0239	0.2989	769.514	0.112668	-324.575851	-324.568737	-324.567792	-324.606985	26.059	
O	-0.2220531721	 1.4104178205	-0.1601475883	-0.464396
C	-0.0276019416	 0.0321702794	-0.0469616726	 0.426477
C	 1.0929209149	-0.5030507803	-0.9353297955	-0.388743
C	 2.3772220231	 0.1037000191	-0.5799833826	 0.246707
N	 3.3633281131	 0.6202080574	-0.2692002772	-0.305907
C	-0.3106998491	-0.6274880497	 1.277571817	-0.312128
C	-1.2758535004	-0.7750415353	 0.1142945073	-0.310283
H	 0.5303172306	 1.854638714	 0.2503024591	 0.297031
H	 1.1731375336	-1.5910732312	-0.8468308906	 0.149804
H	 0.8737289423	-0.2694801289	-1.9833392831	 0.160808
H	 0.2800983714	-1.4869080522	 1.5759345344	 0.120287
H	-0.6093473934	 0.0253887611	 2.0893476837	 0.127035
H	-2.2022731805	-0.2150367073	 0.1590632511	 0.135359
H	-1.3458313018	-1.7356518967	-0.3843769228	 0.117948
78.4444	130.1096	306.5865	324.3904	372.4566	388.7548	398.6484	453.824	552.0532	746.0621	773.2759	886.3272	897.2234	936.3836	960.1816	979.0093	1011.0802	1054.4004	1084.665	1186.8009	1197.0068	1285.8848	1302.558	1317.0352	1401.0234	1450.3793	1458.4205	1502.8273	2359.0744	3048.6754	3095.7632	3136.8809	3141.4347	3223.358	3236.8889	3777.6214
OC1(CC#N)CC1	OC1(CC#N)CC1	
InChI=1S/C5H7NO/c6-4-3-5(7)1-2-5/h7H,1-3H2	InChI=1S/C5H7NO/c6-4-3-5(7)1-2-5/h7H,1-3H2
