10
gdb 440	8.65423	3.76058	2.66467	2.525	43.5	-0.25	-0.0182	0.2318	452.4227	0.075083	-301.395982	-301.391168	-301.390224	-301.424079	17.274	
O	 0.0068472727	-0.0263317812	 0.0034980948	-0.351149
C	-0.0301934519	 1.1775795779	 0.010566853	 0.405316
C	-1.2222928056	 2.1453081449	 0.0314376064	-0.290146
N	-0.66933044	 3.5036429315	 0.0308769415	-0.23521
C	 0.5987330809	 3.3570909868	 0.0127752452	 0.074436
N	 1.0613694984	 2.0461480861	-0.000289481	-0.326849
H	-1.8638146828	 1.983086869	-0.8414814652	 0.155108
H	-1.8400955519	 1.9741782079	 0.9196272604	 0.155067
H	 1.3087749755	 4.1778135196	 0.0071241977	 0.1426
H	 2.0218529547	 1.7442382975	-0.0152301428	 0.270827
168.2645	426.7369	461.7616	534.7637	597.2212	673.8579	857.0904	887.7187	928.7285	993.4188	996.8202	1066.7479	1182.1314	1183.3548	1280.0551	1348.9923	1396.2295	1435.4896	1678.9518	1858.8462	3055.6119	3091.3305	3195.2805	3658.4291
O=C1CN=CN1	O=C1CN=CN1	
InChI=1S/C3H4N2O/c6-3-1-4-2-5-3/h2H,1H2,(H,4,5,6)	InChI=1S/C3H4N2O/c6-3-1-4-2-5-3/h2H,1H2,(H,4,5,6)
