17
gdb 3513	6.94335	1.70221	1.48609	1.6537	64.68	-0.24	0.0888	0.3288	850.9404	0.149169	-309.684577	-309.677714	-309.67677	-309.715894	25.155	
C	-0.0713624679	 1.4418147696	-0.1635554489	-0.272781
C	 1.3078711973	 0.8803421628	 0.0582874627	-0.265669
C	 0.1152143165	-0.0428336774	 0.0492095166	 0.01779
C	-0.3567551633	-0.6679429068	 1.3251664471	 0.157433
C	-1.7365197511	-1.3696295456	 1.3452774989	-0.29655
C	-0.9445280455	-2.5974711217	 1.8317023939	-0.060749
O	 0.3123093193	-1.9209316214	 1.6281883168	-0.294476
H	-0.5215240534	 2.0170963406	 0.639188023	 0.111803
H	-0.3396966896	 1.7841548931	-1.1564802734	 0.113376
H	 1.9905211748	 0.8380063755	-0.7827018871	 0.11454
H	 1.7886287809	 1.0723393564	 1.011795382	 0.117446
H	 0.0009103603	-0.6795761172	-0.8240905362	 0.081541
H	-0.2247260613	 0.0454270873	 2.1537316278	 0.061808
H	-2.4817519116	-0.9607984536	 2.0290666012	 0.10709
H	-2.1811166508	-1.4840766967	 0.3543367077	 0.108522
H	-1.1024477751	-2.8587482799	 2.8867320963	 0.096649
H	-1.0225206696	-3.509223705	 1.2281353016	 0.102225
84.0427	88.6405	187.1944	283.3023	380.7817	459.5375	716.6237	777.1889	818.2097	830.8485	863.0569	917.5999	922.801	965.9931	981.2117	1018.6773	1030.204	1062.1729	1080.2493	1095.8446	1133.3614	1165.5301	1197.1852	1207.5179	1221.3993	1231.9838	1256.0698	1284.0681	1327.3295	1356.9215	1440.4207	1470.7056	1488.7476	1505.7248	1532.9665	2975.6114	3008.4006	3052.5911	3076.4133	3131.5956	3132.2985	3136.5458	3143.955	3210.4933	3225.639
C1CC1C1CCO1	C1CC1[C@H]1CCO1	
InChI=1S/C6H10O/c1-2-5(1)6-3-4-7-6/h5-6H,1-4H2	InChI=1S/C6H10O/c1-2-5(1)6-3-4-7-6/h5-6H,1-4H2/t6-/m1/s1
