14
gdb 1507	7.95399	1.34302	1.16571	2.5046	56.58	-0.269	-0.0751	0.1939	977.2543	0.111841	-361.728608	-361.720898	-361.719954	-361.760927	26.086	
C	 0.047616966	 1.5174846367	-0.1109307437	-0.391907
C	-0.0014488873	 0.0075978257	 0.0145079312	-0.041159
O	 0.6515201967	-0.5497292918	-1.1416726088	-0.24165
C	 0.7066983565	-1.8860193387	-1.2084726371	 0.313917
N	 0.2298803308	-2.6715955243	-0.3352274529	-0.50807
C	 1.4174287591	-2.3248370021	-2.4711001727	 0.107675
O	 1.5825824132	-3.4858200812	-2.7389221467	-0.235246
H	 1.0809130501	 1.8733282867	-0.1516052945	 0.131027
H	-0.4683364457	 1.8520004004	-1.0152897788	 0.131021
H	-0.440843695	 1.9756544286	 0.7539538858	 0.126635
H	 0.5113502034	-0.3518561401	 0.9129657638	 0.127737
H	-1.0274872004	-0.3732568463	 0.0541912622	 0.127761
H	 0.4111843476	-3.6317013109	-0.6369542436	 0.24612
H	 1.7695445051	-1.4999807827	-3.1219179442	 0.106139
72.6591	111.2869	159.3357	188.0674	257.4526	308.4647	370.4892	464.0766	571.3858	735.1257	808.0742	889.7215	904.6657	940.6891	1041.0752	1045.8248	1127.8504	1140.5665	1182.4963	1291.3165	1341.1139	1388.8065	1414.871	1448.251	1485.8114	1495.8988	1518.5559	1716.4006	1831.4986	2945.9214	3047.2354	3047.8174	3084.9282	3122.6148	3126.19	3465.9948
CCOC(=N)C=O	CCO[C]([NH])C=O	
InChI=1S/C4H7NO2/c1-2-7-4(5)3-6/h3,5H,2H2,1H3	InChI=1S/C4H7NO2/c1-2-7-4(5)3-6/h3,5H,2H2,1H3
