12
gdb 693	6.64811	3.82504	3.12955	1.9201	45.31	-0.2521	0.0773	0.3294	456.2711	0.096669	-306.320451	-306.315325	-306.31438	-306.348781	19.349	
O	 0.0599445439	 1.3900632505	-0.1190387058	-0.431715
C	 0.0418515281	-0.0043178985	-0.0187653491	 0.137971
C	 0.3240237086	-0.6666368171	 1.3913975769	-0.293525
C	-1.0886590249	-1.2480737162	 1.3344094617	 0.039414
O	-1.9886558536	-0.1365531309	 1.1804808806	-0.259873
C	-1.3488940397	-0.6671119753	 0.0073882891	-0.012421
H	-0.6292710457	 1.7062866766	 0.4798121868	 0.288687
H	 0.6995811721	-0.3970157389	-0.7975788821	 0.095657
H	 1.1145032994	-1.4198453075	 1.3474866028	 0.110192
H	 0.5163472376	 0.0261496938	 2.2140273931	 0.111046
H	-1.4909847634	-2.1440624619	 1.7910697323	 0.109317
H	-1.9922649024	-0.9831253045	-0.8058208564	 0.10525
161.697	349.3653	427.6736	493.166	616.5253	720.2858	808.5845	839.8484	868.3648	899.9237	938.0999	992.6817	1018.6254	1057.4601	1111.1225	1147.7222	1194.0644	1231.5488	1237.9458	1278.4917	1311.0221	1381.542	1438.105	1471.0205	3066.381	3092.8577	3126.9749	3182.6643	3201.6077	3767.6233
OC1CC2OC12	O[C@H]1C[C@H]2O[C@@H]12	
InChI=1S/C4H6O2/c5-2-1-3-4(2)6-3/h2-5H,1H2	InChI=1S/C4H6O2/c5-2-1-3-4(2)6-3/h2-5H,1H2/t2-,3+,4-/m0/s1
