12
gdb 697	8.56689	4.1967	4.11734	1.8496	49.26	-0.2321	0.0778	0.3099	399.7024	0.097292	-269.12958	-269.125375	-269.124431	-269.156785	16.757	
C	-0.0945451639	 1.6300123447	 0.0106695736	-0.274043
C	 1.4218448865	 1.3381245183	-0.0044345227	-0.083573
C	 1.2542213817	 0.0610202991	 0.878275429	 0.102601
O	 1.9990071444	-0.8123695991	-0.0210522775	-0.325884
C	 1.2383542119	 0.0704844939	-0.8975695526	 0.102601
C	-0.0379241635	 0.0867732946	 0.0019395155	-0.083577
H	-0.4930356122	 2.0994772668	 0.9142265422	 0.101348
H	-0.5090718534	 2.1090423204	-0.8805683511	 0.101348
H	 2.2717408807	 2.0202743132	-0.0083926676	 0.084286
H	 1.3697744013	-0.068297336	 1.954308718	 0.095303
H	 1.3346500393	-0.0473472106	-1.9768127731	 0.095304
H	-0.8419659327	-0.6488712853	 0.0052034991	 0.084286
394.5727	536.6273	727.609	766.6669	796.7087	835.0335	869.3157	870.7675	873.4302	948.1751	957.6062	1031.7756	1032.0014	1072.4484	1122.2901	1150.8567	1151.5368	1170.9681	1174.1297	1188.9896	1252.0045	1283.1531	1335.1599	1512.0233	3052.1813	3107.7507	3113.6769	3119.3586	3122.3044	3137.3149
C1C2C3OC2C13	C1[C@H]2[C@@H]3O[C@H]2[C@H]13	
InChI=1S/C5H6O/c1-2-4-3(1)5(2)6-4/h2-5H,1H2	InChI=1S/C5H6O/c1-2-4-3(1)5(2)6-4/h2-5H,1H2/t2-,3+,4-,5+
