13
gdb 2137	3.64951	3.47962	1.9328	2.3596	54.48	-0.2463	-0.0165	0.2298	643.2025	0.10317	-340.688787	-340.68249	-340.681546	-340.718918	22.863	
C	-0.0507061673	 1.555297058	-0.0071296685	-0.38341
C	 0.0489014021	 0.0286817815	-0.0201894502	-0.091955
N	 0.8329641767	-0.4790291135	-1.1582325969	-0.242176
C	 1.7667541623	-1.1870160684	-0.6539047689	 0.064576
N	 1.7800561101	-1.2803996439	 0.734184002	-0.334204
C	 0.7290412253	-0.5229096318	 1.2455415643	 0.413693
O	 0.457638146	-0.3574344812	 2.4086008718	-0.362913
H	 0.9453067393	 2.0070686481	 0.008794819	 0.126287
H	-0.5727399553	 1.9059939928	-0.900093996	 0.132782
H	-0.5947246675	 1.8802506347	 0.8834420164	 0.14
H	-0.9614609896	-0.3969687996	-0.0759130272	 0.127676
H	 2.5252447333	-1.704538867	-1.2327650186	 0.140462
H	 2.4543854746	-1.7689415897	 1.3007148727	 0.269182
114.9786	217.3257	229.7709	298.4542	480.12	498.8003	594.6318	661.0596	716.6434	813.0566	846.9054	909.8529	942.5324	1048.1062	1064.7774	1107.6403	1116.8092	1193.091	1277.0585	1305.3019	1350.4438	1392.7324	1402.4518	1487.4999	1496.6397	1677.3267	1852.7578	3033.0919	3049.3456	3124.8638	3137.0486	3191.3316	3654.037
CC1N=CNC1=O	C[C@H]1N=CNC1=O	
InChI=1S/C4H6N2O/c1-3-4(7)6-2-5-3/h2-3H,1H3,(H,5,6,7)	InChI=1S/C4H6N2O/c1-3-4(7)6-2-5-3/h2-3H,1H3,(H,5,6,7)/t3-/m1/s1
