13
gdb 3424	4.80633	2.90732	2.08518	2.2657	53.6	-0.2398	-0.0228	0.2169	613.8177	0.102411	-344.453746	-344.448049	-344.447104	-344.483265	21.496	
O	 0.0152976386	 0.0432154796	 0.1725888785	-0.316189
C	 0.0014031627	 1.2372360098	 0.0179281175	 0.384309
C	-1.2629164467	 2.0968573557	-0.1617009783	-0.195869
O	-0.8487166165	 3.3747433196	-0.6226612092	-0.258812
C	 0.5506265658	 3.4871276403	-0.5079654335	 0.121443
C	 1.1384564432	 3.3670821122	 0.85363405	-0.321702
C	 1.1619517462	 2.1654898079	-0.1072412381	-0.189002
H	-1.9294790746	 1.6373083589	-0.8987238907	 0.14285
H	-1.8083727799	 2.1684504546	 0.7900281877	 0.130322
H	 0.9780335362	 4.1386671764	-1.2604798613	 0.117449
H	 2.1020723083	 3.8279513455	 1.0387508947	 0.133239
H	 0.4749521204	 3.3371070087	 1.7112384019	 0.133243
H	 2.1084118865	 1.7806715106	-0.4620791594	 0.118718
127.6591	204.6745	410.7585	441.8851	545.3015	628.3675	676.1421	755.2602	806.5835	851.1371	920.7858	947.4756	990.6371	1032.2127	1044.6668	1050.7943	1094.5451	1144.9295	1178.5463	1204.4788	1219.4718	1306.3975	1324.0304	1381.9023	1476.9992	1487.5375	1845.419	3011.3784	3076.5768	3137.0275	3190.57	3210.3727	3228.7422
O=C1COC2CC12	O=C1CO[C@H]2C[C@@H]12	
InChI=1S/C5H6O2/c6-4-2-7-5-1-3(4)5/h3,5H,1-2H2	InChI=1S/C5H6O2/c6-4-2-7-5-1-3(4)5/h3,5H,1-2H2/t3-,5-/m0/s1
