12
gdb 943	6.01047	2.73055	1.88051	3.7857	58.89	-0.2275	-0.0332	0.1943	629.4268	0.093496	-319.606765	-319.601195	-319.600251	-319.635829	21.137	
N	-0.0162945121	 1.409692818	 0.1432902441	-0.59326
C	 0.0019267046	 0.025776856	 0.0423679665	 0.251681
C	-1.1697424573	-0.7421680005	 0.0249775492	-0.032202
N	-1.1594093413	-2.0711945546	-0.0119842412	-0.238384
C	 0.0379723909	-2.6582233558	-0.0327684359	 0.055304
N	 1.2191140121	-2.0388579142	-0.0260376302	-0.238383
C	 1.1937511164	-0.7100345146	 0.0110131126	-0.032203
H	 0.8120632562	 1.8806500597	-0.1903427378	 0.254843
H	-0.8610386052	 1.857898638	-0.1804492918	 0.254843
H	-2.1446860823	-0.255210563	 0.0411152642	 0.102103
H	 0.0525611576	-3.7438950039	-0.0617129459	 0.113553
H	 2.1552200803	-0.196752875	 0.0157101063	 0.102104
212.1469	293.9641	363.9798	430.9661	495.3006	569.4616	598.4843	637.3623	752.8422	852.7205	912.6251	961.959	977.3045	1045.174	1091.0931	1151.2771	1225.8573	1260.5968	1331.271	1382.6288	1469.8914	1485.7287	1594.4045	1623.2445	1658.8874	3126.4322	3128.9267	3177.1309	3564.9352	3663.5356
NC1=CN=CN=C1	Nc1cncnc1	
InChI=1S/C4H5N3/c5-4-1-6-3-7-2-4/h1-3H,5H2	InChI=1S/C4H5N3/c5-4-1-6-3-7-2-4/h1-3H,5H2
