14
gdb 3724	7.04001	1.88386	1.66555	0.5055	58.34	-0.2583	-0.0005	0.2579	759.1156	0.116027	-320.770681	-320.764186	-320.763242	-320.801981	22.862	
C	 0.2010949733	 1.4934273731	 0.2230907836	-0.369906
C	-0.1702630879	 0.04577631	-0.1429509234	-0.289608
C	 0.6331590278	-0.4905392959	-1.2871118676	 0.309885
N	 0.2272886737	-0.376784727	-2.5564258265	-0.266004
N	 1.2141583673	-0.9334554519	-3.247639463	-0.070986
N	 2.2350043142	-1.4099281184	-2.550874455	-0.194533
C	 1.8860261722	-1.1355070096	-1.2935773208	-0.125782
H	 1.2548637192	 1.5701708884	 0.5090223368	 0.119479
H	 0.0352595425	 2.1609046596	-0.6274571696	 0.130708
H	-0.4051737513	 1.8491677332	 1.061736633	 0.114683
H	-0.0275443817	-0.6011185972	 0.7298406466	 0.108936
H	-1.2309450482	-0.0049187629	-0.407530735	 0.122126
H	 1.1802504889	-1.0058617253	-4.2514438763	 0.291176
H	 2.5266505299	-1.4084236861	-0.4697487829	 0.119825
33.7094	162.0772	216.0739	347.0152	405.1185	518.9847	652.7435	723.804	751.0855	786.2322	880.9574	967.6386	997.4113	1029.8608	1068.3785	1086.1823	1165.0256	1203.1579	1241.6895	1288.9657	1339.8697	1372.1686	1408.7625	1414.6687	1477.4874	1484.4548	1497.0465	1509.2722	1566.5063	3038.5559	3044.3344	3085.0465	3111.0029	3119.0495	3265.3583	3670.3568
CCC1=NNN=C1	CCc1n[nH]nc1	
InChI=1S/C4H7N3/c1-2-4-3-5-7-6-4/h3H,2H2,1H3,(H,5,6,7)	InChI=1S/C4H7N3/c1-2-4-3-5-7-6-4/h3H,2H2,1H3,(H,5,6,7)
