13
gdb 4605	5.7645	1.59096	1.24864	4.6165	66.35	-0.1974	-0.058	0.1395	892.798	0.098081	-394.834322	-394.827656	-394.826712	-394.865001	25.436	
N	 0.0188283812	 1.4336987077	 0.1508365347	-0.576499
C	-0.0427024303	 0.0393280777	 0.0480291861	 0.328423
C	-1.2071229157	-0.6738728349	 0.0302439738	-0.071832
N	-1.1458908837	-2.0437954043	-0.0119411705	-0.326564
C	 0.0334209728	-2.7831622027	-0.026936879	 0.380534
O	 0.0434865003	-4.0038045578	-0.0627754267	-0.400244
C	 1.2036805825	-1.9026165502	-0.0000643386	-0.101205
N	 1.1662027271	-0.6054124943	 0.0310417356	-0.263229
H	 0.9273504297	 1.7756780964	-0.1325229907	 0.254539
H	-0.7234658146	 1.9267466462	-0.3253291849	 0.246331
H	-2.1925327511	-0.2268219914	 0.0518634403	 0.127118
H	-1.9969292674	-2.5886821719	-0.0303637978	 0.267214
H	 2.1733406392	-2.3946148003	-0.0132033122	 0.135415
115.0003	220.3549	336.1881	347.1784	396.8814	447.8923	513.5125	518.0195	634.8708	673.8392	719.676	778.1578	810.3541	826.6114	847.0974	947.2601	983.5166	1094.4767	1187.0459	1220.9836	1328.9462	1360.8184	1411.9263	1475.904	1568.5478	1635.4531	1681.2519	1780.1435	3165.6019	3211.4633	3552.4223	3607.4309	3653.6009
NC1=CNC(=O)C=N1	Nc1c[nH]c(=O)cn1	
InChI=1S/C4H5N3O/c5-3-1-7-4(8)2-6-3/h1-2H,(H2,5,6)(H,7,8)	InChI=1S/C4H5N3O/c5-3-1-7-4(8)2-6-3/h1-2H,(H2,5,6)(H,7,8)
