10
gdb 351	8.88065	2.27616	1.83245	4.1336	46.43	-0.2661	-0.0573	0.2088	617.4214	0.070046	-305.130313	-305.123605	-305.122661	-305.160728	22.333	
O	 0.0273263669	 1.4101904451	 0.0096627693	-0.393601
C	-0.025474088	 0.0116101535	 0.0024275163	-0.177421
C	-1.4788233546	-0.4435175569	 0.0137177129	 0.2543
O	-2.4202982569	 0.3105901444	 0.0266779813	-0.255961
C	-1.6363679554	-1.8915267792	 0.0074352944	 0.247371
C	-1.7587079359	-3.088859651	 0.0023283585	-0.42973
H	 0.9516999394	 1.6748732457	 0.0007930495	 0.296766
H	 0.4478553027	-0.4383556369	-0.8879182904	 0.120452
H	 0.4646245133	-0.4481056078	 0.878627791	 0.12044
H	-1.8829033815	-4.144736267	-0.0020694127	 0.217383
95.5048	148.2828	203.9113	255.9297	278.7057	497.1842	572.9996	590.3683	662.3951	707.6695	810.9649	1012.5026	1071.6992	1156.6727	1236.3736	1243.6846	1441.7159	1488.1399	1795.7329	2212.5811	2953.9786	2976.8866	3494.0403	3838.7637
OCC(=O)C#C	OCC(=O)C#C	
InChI=1S/C4H4O2/c1-2-4(6)3-5/h1,5H,3H2	InChI=1S/C4H4O2/c1-2-4(6)3-5/h1,5H,3H2
