18
gdb 4485	3.45687	1.71271	1.17023	0.3628	76.96	-0.1968	0.0313	0.228	1054.9627	0.152466	-347.859515	-347.850706	-347.849762	-347.892842	31.413	
C	 0.1247115512	 1.4552914315	-0.0727112104	-0.490905
C	-0.0621002496	-0.0190823379	-0.0458730321	 0.360607
C	-1.1521120313	-0.8276197703	-0.0760998783	-0.366511
C	-0.6747590845	-2.1860478651	-0.021886578	 0.189806
C	-1.5194577576	-3.4228284156	-0.0306174443	-0.505774
C	 0.6839723832	-2.0966811333	 0.0377609719	 0.254014
C	 1.7831420567	-3.0954115441	 0.1115263948	-0.494435
O	 1.0682505986	-0.7809378708	 0.0237396083	-0.218547
H	 0.7207564706	 1.7712684065	-0.9368816645	 0.134318
H	-0.8468103477	 1.951453902	-0.128830667	 0.132252
H	 0.6405202733	 1.8135527801	 0.8258927098	 0.134316
H	-2.1816737639	-0.506293224	-0.1305638352	 0.098377
H	-2.1306194062	-3.4855141447	-0.9387561843	 0.12661
H	-0.9107616006	-4.3297711735	 0.0186330874	 0.120488
H	-2.2103256677	-3.4434776025	 0.8205242703	 0.126613
H	 2.464137441	-3.0098288035	-0.7435411192	 0.133795
H	 2.3841916886	-2.9676414934	 1.0196203913	 0.133794
H	 1.374937456	-4.1083337512	 0.1172523894	 0.131181
92.8199	119.9038	126.5328	169.336	222.9972	256.8475	265.3942	330.6069	446.1765	586.3005	635.25	637.1795	649.9753	776.6504	795.1939	941.5188	987.6247	1017.0299	1031.7033	1056.1959	1063.9931	1067.7127	1149.8921	1183.5201	1246.2428	1288.5079	1395.053	1414.921	1424.6902	1427.4444	1471.74	1472.4076	1482.9631	1491.112	1492.9607	1498.6031	1621.9419	1685.1827	3024.2734	3025.7188	3027.3131	3071.5553	3071.9804	3075.0299	3109.0708	3126.8994	3127.3749	3241.6872
CC1=CC(C)=C(C)O1	Cc1cc(C)c(C)o1	
InChI=1S/C7H10O/c1-5-4-6(2)8-7(5)3/h4H,1-3H3	InChI=1S/C7H10O/c1-5-4-6(2)8-7(5)3/h4H,1-3H3
