16
gdb 1103	3.38775	2.35583	1.99745	4.672	56.9	-0.24	0.0336	0.2736	738.2224	0.133636	-362.945802	-362.936966	-362.936022	-362.978979	31.741	
C	-0.0143246026	 1.5441138099	 0.0053496328	-0.416743
C	 0.0084311545	 0.0036514731	 0.0245325435	 0.242351
C	 0.7344486274	-0.5371768966	 1.2697780923	-0.411812
O	-1.3179122049	-0.4933889287	-0.0179794134	-0.43677
C	 0.6813845596	-0.5426101904	-1.2625047651	 0.389447
N	 1.9949394702	-0.1790452328	-1.4206751681	-0.525417
O	 0.1131455527	-1.2570881138	-2.0555774639	-0.34529
H	 0.9870667966	 1.9857904813	 0.0230246838	 0.1032
H	-0.5379078128	 1.9016969312	-0.8849735545	 0.141245
H	-0.5464632044	 1.9151421973	 0.8890725208	 0.11087
H	 0.2354327054	-0.1757995739	 2.1769023183	 0.107207
H	 0.7054575103	-1.6297252567	 1.2723954838	 0.141952
H	 1.7794933287	-0.2181642499	 1.3168102572	 0.108503
H	-1.759851163	-0.1925541087	 0.7830169883	 0.276117
H	 2.4268862845	 0.5402107465	-0.8687547388	 0.253975
H	 2.4313391778	-0.4286339077	-2.2934202668	 0.261164
26.1959	194.6086	208.8001	245.6822	252.7558	268.6196	275.7343	336.1666	383.22	431.144	480.1755	542.8669	575.221	705.6133	766.9942	868.5309	919.4708	987.0574	1018.2895	1077.7438	1134.3978	1185.1762	1223.967	1307.7923	1378.7021	1395.9815	1419.8699	1474.7549	1483.5945	1496.4217	1506.8755	1616.5386	1818.3351	3026.9261	3031.5963	3090.641	3100.3219	3122.74	3126.7552	3603.4362	3737.5796	3812.3311
CC(C)(O)C(N)=O	CC(C)(O)C(=O)N	
InChI=1S/C4H9NO2/c1-4(2,7)3(5)6/h7H,1-2H3,(H2,5,6)	InChI=1S/C4H9NO2/c1-4(2,7)3(5)6/h7H,1-2H3,(H2,5,6)
