10
gdb 80	10.14389	4.0714	3.02223	5.3004	35.19	-0.2527	0.0208	0.2735	408.0279	0.080317	-284.372483	-284.367172	-284.366228	-284.40095	17.931	
N	 0.0183810043	 0.9305735658	 0.0494305752	-0.524952
H	-0.7067450554	 0.5611679846	-0.5555013419	 0.251735
H	 0.6824830658	 0.1843000154	 0.2148709866	 0.251132
H	 0.2192808353	 2.798585581	-0.3267058478	 0.305853
C	-0.5458691443	 1.4468858549	 1.3027458606	-0.299893
C	-0.8046697453	 2.9603056855	 1.2105283501	 0.419793
O	-0.2146882188	 3.5364888393	 0.155316873	-0.359371
O	-1.4529567584	 3.5633861829	 2.0214352751	-0.332036
H	-1.4766257881	 0.9651218317	 1.6207216946	 0.138415
H	 0.1778120948	 1.303242859	 2.1115717646	 0.149323
97.1002	269.2667	313.7661	503.1914	555.9453	652.4365	823.3893	850.3689	891.4789	954.6752	1073.229	1160.9591	1225.6246	1316.6859	1370.6599	1426.4639	1469.7326	1660.5583	1879.5594	3049.2224	3095.9303	3483.7787	3525.5462	3605.6973
[NH3+]CC([O-])=O	NCC(=O)O	
InChI=1S/C2H5NO2/c3-1-2(4)5/h1,3H2,(H,4,5)	InChI=1S/C2H5NO2/c3-1-2(4)5/h1,3H2,(H,4,5)
