17
gdb 3188	5.01818	1.98964	1.85367	1.2994	64.36	-0.2445	0.0735	0.3179	767.1963	0.147883	-309.686571	-309.679431	-309.678487	-309.717453	27.676	
O	 0.1366782454	 1.3687122404	-0.1427213662	-0.463519
C	 0.0781896192	-0.0327334261	-0.0442452726	 0.399047
C	 1.1257668073	-0.7466707343	-0.8450024312	-0.292347
C	 1.2160050299	-0.7210170211	 0.6701925328	-0.328428
C	-1.3083800991	-0.6057707087	 0.0377130752	-0.022648
C	-2.4179776173	 0.1313363762	 0.7473514467	-0.285492
C	-2.4337522467	 0.0033388422	-0.7570621609	-0.263276
H	-0.0100423532	 1.7300900751	 0.7381072053	 0.283152
H	 0.8560641887	-1.6765004765	-1.3337257737	 0.112076
H	 1.8221897081	-0.1244703664	-1.394647102	 0.121629
H	 1.9792362182	-0.0872774394	 1.1085814754	 0.110868
H	 1.009650432	-1.6334105444	 1.2198425243	 0.110397
H	-1.3197051907	-1.6875387395	 0.1382555782	 0.078757
H	-3.1267246891	-0.44632298	 1.3301823457	 0.1096
H	-2.2051849621	 1.1132802527	 1.1566582401	 0.097504
H	-2.2015056536	 0.8954783973	-1.3269873162	 0.126059
H	-3.1610815269	-0.6573244275	-1.2153577112	 0.106622
78.781	214.9291	233.8592	316.8161	334.4735	382.2075	469.3425	529.3696	679.639	770.9678	788.6532	817.7255	865.1548	891.5739	918.8536	962.1312	966.6576	989.6025	1046.9989	1060.6013	1073.7075	1080.9025	1086.4361	1134.8285	1188.26	1198.2403	1222.1423	1255.2022	1298.4981	1350.5498	1425.5972	1452.7134	1458.7865	1491.308	1510.0532	3127.9934	3131.0435	3137.2156	3138.4798	3145.4382	3210.6925	3213.9414	3230.8977	3231.8712	3799.9582	78.7807	214.9292	233.8592	316.8167	334.4736	382.2077	469.3426	529.3697	679.639	770.9679	788.6532	817.7256	865.1548	891.5738	918.8534	962.1312	966.6575	989.6024	1046.9988	1060.6014	1073.7071	1080.9027	1086.4361	1134.8285	1188.2595	1198.2406	1222.1424	1255.2022	1298.4981	1350.5499	1425.5971	1452.7129	1458.7868	1491.3079	1510.0533	3127.9934	3131.0435	3137.2156	3138.4797	3145.4382	3210.6924	3213.9415	3230.8977	3231.8712	3799.9584
OC1(CC1)C1CC1	OC1(CC1)C1CC1	
InChI=1S/C6H10O/c7-6(3-4-6)5-1-2-5/h5,7H,1-4H2	InChI=1S/C6H10O/c7-6(3-4-6)5-1-2-5/h5,7H,1-4H2
