13
gdb 2616	12.29481	0.94972	0.89624	3.8228	58.96	-0.331	0.0031	0.3341	1162.5027	0.101944	-303.533472	-303.526024	-303.52508	-303.565675	24.897	
N	-0.0540198125	-1.1765526318	-0.0040732728	-0.291347
C	-0.0437888809	-0.0214403394	 0.0023734006	 0.259696
C	-0.0103614306	 1.4389876673	 0.0102150755	-0.345448
C	 1.4283478891	 1.9899997772	-0.0011013742	-0.180688
C	 1.4261725274	 3.5306458949	 0.0074139913	-0.345453
C	 2.7772768189	 4.0859863573	-0.0027262432	 0.259713
N	 3.8517000757	 4.5102117914	-0.0112534659	-0.291354
H	-0.5657694503	 1.8041608945	-0.8618969815	 0.159014
H	-0.5481662265	 1.794334088	 0.8972848273	 0.159014
H	 1.9735441581	 1.6167662908	 0.8700959198	 0.149408
H	 1.9560572268	 1.6263979796	-0.8870163853	 0.149414
H	 0.8850307907	 3.9163591354	-0.8648313005	 0.159022
H	 0.9023956941	 3.9066602246	 0.8943494989	 0.159008
95.0883	97.604	98.9857	214.3653	316.2147	392.8003	400.1737	486.6108	586.4962	742.1367	845.3427	910.6763	980.8333	1034.538	1039.8765	1086.3046	1184.7397	1268.0154	1298.3711	1329.1392	1351.5437	1395.4148	1467.7319	1472.2733	1501.7137	2366.9455	2367.4734	3037.9384	3038.2973	3072.0182	3072.0886	3075.8697	3120.7663
N#CCCCC#N	N#CCCCC#N	
InChI=1S/C5H6N2/c6-4-2-1-3-5-7/h1-3H2	InChI=1S/C5H6N2/c6-4-2-1-3-5-7/h1-3H2
