14
gdb 4623	5.78306	1.64699	1.29298	7.3129	69.27	-0.2258	-0.0376	0.1882	899.7837	0.10961	-374.92962	-374.922503	-374.921558	-374.962018	24.964	
C	-0.215096143	 1.4619178762	 0.0118864731	-0.34782
N	 0.0152558596	 0.0261413333	 0.0037594631	-0.07228
C	 0.1728358649	-0.6865119105	-1.1716960615	 0.093699
N	 0.4465039348	-1.929538967	-1.2384394915	-0.262748
C	 0.6175194784	-2.6389951308	-0.0275376423	 0.363987
N	 0.9145756921	-3.8766561002	-0.0799976181	-0.504197
N	 0.4479360438	-1.9485273182	 1.2044401822	-0.307728
C	 0.1748196501	-0.702145988	 1.1633847758	 0.096581
H	 0.722699956	 2.0261986643	-0.0442663731	 0.152206
H	-0.8437839156	 1.7389152822	-0.8377619742	 0.15481
H	-0.738274325	 1.7411982498	 0.9291423613	 0.153575
H	 0.0354987122	-0.10352425	-2.0819932144	 0.131258
H	 0.9966144178	-4.2232894864	 0.8770484942	 0.219072
H	 0.0411475938	-0.1363612947	 2.0853257352	 0.129585
54.1609	58.6668	175.4442	327.5134	438.4871	458.6974	489.05	502.5812	681.6726	768.1092	799.7766	837.9331	907.2259	965.776	969.8866	998.2596	1058.4913	1105.2214	1150.0886	1260.091	1286.0208	1393.3899	1421.4165	1431.2857	1476.1613	1488.7652	1513.4041	1623.2344	1702.9629	1746.2043	3033.7767	3105.1185	3130.4015	3136.3311	3139.2351	3478.5577
CN1C=NC(=N)N=C1	CN1CN=C([NH])N=C1	
InChI=1S/C4H6N4/c1-8-2-6-4(5)7-3-8/h2-3,5H,1H3	InChI=1S/C4H7N4/c1-8-2-6-4(5)7-3-8/h2,5H,3H2,1H3
