14
gdb 4600	5.66431	1.60045	1.2576	4.6597	69.35	-0.2278	-0.066	0.1618	924.2162	0.108256	-378.751594	-378.744591	-378.743646	-378.783217	25.562	
C	-0.0182183028	 1.526569804	 0.0058015819	-0.497599
C	 0.0003961516	 0.0250651702	-0.0182403257	 0.155664
C	-0.0512701581	-0.7068893873	-1.1494375147	 0.032089
O	-0.0345682418	-2.0433123488	-1.1678403263	-0.19022
C	 0.0403224839	-2.7648598248	 0.0329185459	 0.430667
N	 0.0497455703	-4.0226945023	-0.0983187473	-0.52286
N	 0.0954035015	-2.0542167357	 1.2270891182	-0.29994
C	 0.076140896	-0.7629980304	 1.1876573911	-0.017995
H	 0.8847170557	 1.9315812136	 0.4768118521	 0.139636
H	-0.0774621744	 1.9354599677	-1.0064600068	 0.133128
H	-0.8764819293	 1.9082913115	 0.5704804395	 0.139649
H	-0.1110674504	-0.2930057688	-2.1510911689	 0.14212
H	 0.1054226727	-4.4359217082	 0.8312205233	 0.234969
H	 0.1212828849	-0.2450965407	 2.1479307877	 0.12069
57.7921	140.1849	272.9762	286.1624	370.0291	467.9538	493.0985	498.5571	650.419	745.7008	767.9032	813.3058	863.5738	923.7824	949.983	1001.9367	1032.1423	1039.0891	1074.9327	1202.0772	1272.9549	1296.7575	1383.0986	1422.085	1429.9967	1479.8394	1497.5848	1589.96	1714.9927	1733.0235	3029.0632	3081.7818	3110.7529	3114.3148	3192.4707	3518.5417
CC1=COC(=N)N=C1	CC1=CN=C(OC1)[NH]	
InChI=1S/C5H6N2O/c1-4-2-7-5(6)8-3-4/h2-3,6H,1H3	InChI=1S/C5H7N2O/c1-4-2-7-5(6)8-3-4/h2,6H,3H2,1H3
