17
gdb 2109	4.65492	2.49685	1.77836	1.5854	60.54	-0.2564	0.0933	0.3497	740.5091	0.149782	-346.867442	-346.860807	-346.859863	-346.897653	25.428	
C	 0.0105383062	 1.4953351616	 0.0099811702	-0.40686
C	 0.0531960983	-0.0168452545	 0.0014690044	 0.227392
O	 0.7069782023	-0.4359339021	-1.1750871851	-0.248441
C	 0.7928923838	-1.8518177629	-1.2567056843	-0.075971
C	 1.5043098237	-2.4167026496	-0.0252906466	-0.205451
C	 0.8166523195	-1.8651266454	 1.2255033118	-0.075969
O	 0.7293230874	-0.4484586917	 1.1607418595	-0.248444
H	 1.0302424599	 1.8878419687	 0.0020002702	 0.134241
H	-0.5182555578	 1.858393146	-0.8740389084	 0.124513
H	-0.5006416939	 1.8488267103	 0.9081250693	 0.124521
H	-0.9681209771	-0.4502998273	 0.0089116702	 0.047998
H	-0.2196840449	-2.2843850157	-1.3375676604	 0.086111
H	 1.3307502379	-2.0784320548	-2.181042309	 0.109752
H	 1.4760481052	-3.5121709118	-0.0308902693	 0.09649
H	 2.5523765725	-2.0997412374	-0.0336253742	 0.114256
H	-0.1942331279	-2.2986462988	 1.3210886558	 0.08611
H	 1.3720836449	-2.1015852746	 2.1368905058	 0.109752
166.9517	199.7108	262.9796	316.9001	339.4334	461.7498	483.0127	560.0012	636.2118	826.458	872.3532	882.2814	901.0473	945.0224	985.5086	1071.0959	1076.997	1127.8381	1128.1129	1175.3825	1196.6206	1239.7228	1267.9865	1309.5098	1370.388	1378.7305	1389.2357	1416.4762	1416.8855	1434.1112	1469.2579	1481.8392	1487.3687	1499.0831	1505.5273	2891.7742	2954.0839	2961.6368	3042.1102	3058.7188	3087.5468	3089.7942	3096.9015	3140.3068	3141.8791
CC1OCCCO1	CC1OCCCO1	
InChI=1S/C5H10O2/c1-5-6-3-2-4-7-5/h5H,2-4H2,1H3	InChI=1S/C5H10O2/c1-5-6-3-2-4-7-5/h5H,2-4H2,1H3
