11
gdb 3954	7.75725	1.97927	1.5926	4.0075	48.05	-0.2671	-0.0365	0.2306	702.6245	0.078119	-376.538277	-376.532007	-376.531063	-376.569087	21.34	
O	-0.0259615887	 1.4190450919	 0.0081543402	-0.417886
C	 0.0035614777	 0.0029999176	 0.0023378475	-0.179617
C	-1.4123763933	-0.4661878313	 0.0122825577	 0.256912
C	-2.5743708052	 0.2350814039	 0.0242011852	-0.028319
O	-3.592923724	-0.6244510525	 0.0293841854	-0.161774
N	-3.01777576	-1.9276513261	 0.020428557	-0.005732
N	-1.765651953	-1.796553343	 0.0105494334	-0.184361
H	 0.8799159496	 1.7404173134	 0.001674722	 0.298947
H	 0.5154949162	-0.3940336572	-0.8882738086	 0.120143
H	 0.5302139428	-0.401030038	 0.8811385804	 0.120148
H	-2.8004102521	 1.2870601811	 0.02968727	 0.181539
53.6069	195.2069	209.8033	277.0292	453.3212	631.6945	649.1352	700.8635	702.4237	851.3537	988.7414	1046.8314	1052.4224	1090.7348	1137.5876	1226.6115	1238.21	1251.622	1335.4905	1435.644	1484.4239	1516.7115	1635.7188	2976.6106	2999.3713	3306.3042	3842.674
OCC1=CON=N1	OCc1conn1	
InChI=1S/C3H4N2O2/c6-1-3-2-7-5-4-3/h2,6H,1H2	InChI=1S/C3H4N2O2/c6-1-3-2-7-5-4-3/h2,6H,1H2
