14
gdb 2666	11.72045	1.1009	1.02328	4.2459	58.16	-0.2646	-0.0243	0.2403	1092.5114	0.111501	-361.734339	-361.726517	-361.725573	-361.766972	26.043	
C	-0.083654826	 1.2360884914	-0.0314376205	-0.400946
C	-0.0000497499	-0.291130994	-0.0778093009	-0.114114
N	-1.0991767666	-1.0300220804	-0.6838170212	-0.231923
C	-2.1013014529	-0.4343118057	-1.1440846851	 0.141807
O	-3.1631751173	-1.0851046915	-1.7253630393	-0.197558
C	-3.3426483119	-2.4254494077	-1.4836155489	 0.180252
O	-4.1757737378	-3.0428590192	-2.0686929424	-0.253677
H	 0.8157442761	 1.6342386049	 0.4468745713	 0.124694
H	-0.1461376465	 1.6721575732	-1.0339527562	 0.12756
H	-0.9470160159	 1.5811801401	 0.5471537516	 0.125607
H	 0.9090596625	-0.5952317523	-0.6117382359	 0.125247
H	 0.118217734	-0.6852466376	 0.9395663479	 0.123514
H	-2.286176447	 0.6401171374	-1.183281917	 0.120719
H	-2.6629904409	-2.8079163188	-0.7118017435	 0.128817
59.0088	96.8578	163.9526	189.858	243.9495	274.034	351.5533	479.6093	524.0064	748.3565	779.9586	907.6222	981.2498	1026.3376	1046.8801	1081.5154	1106.7192	1147.6481	1200.186	1314.8842	1375.0895	1391.698	1398.9083	1417.7408	1480.4057	1495.6296	1506.0539	1757.4408	1872.2433	3026.3706	3035.5883	3048.882	3074.8976	3104.7252	3112.3863	3120.8876
CCN=COC=O	CCN=COC=O	
InChI=1S/C4H7NO2/c1-2-5-3-7-4-6/h3-4H,2H2,1H3	InChI=1S/C4H7NO2/c1-2-5-3-7-4-6/h3-4H,2H2,1H3
