13
gdb 1509	5.32554	1.53289	1.20827	1.7598	52.47	-0.2548	-0.0984	0.1563	927.7355	0.098097	-381.58674	-381.578791	-381.577847	-381.619738	25.694	
C	-0.1668316363	 1.326860962	 0.3038353649	-0.22748
O	 0.1381006671	-0.0099032668	-0.0301080401	-0.216935
C	 0.5283106325	-0.7651176783	 1.072308403	-0.155681
C	 0.8396035783	-2.1840360117	 0.6442783338	 0.263995
O	 0.7629408058	-2.6062314168	-0.4816238892	-0.250967
C	 1.2860856085	-3.1332641679	 1.763847681	 0.078665
O	 1.3906851246	-2.7990429142	 2.9150362171	-0.216437
H	 0.7020939322	 1.847088522	 0.7354788275	 0.110578
H	-0.4590671546	 1.8292341789	-0.6204702633	 0.138149
H	-0.9980507201	 1.387404272	 1.0231372182	 0.110571
H	 1.4243505954	-0.3555923554	 1.5739306536	 0.126039
H	-0.2499520049	-0.8083023668	 1.8563464723	 0.126033
H	 1.5014965116	-4.159010627	 1.3973051013	 0.113469
74.6753	92.678	135.3149	140.6368	229.2637	256.3213	371.0888	459.0625	516.1173	631.894	839.9384	886.0888	1017.6092	1063.4653	1172.0509	1173.8106	1183.4034	1241.7659	1243.5869	1363.4159	1412.2582	1458.6893	1486.5393	1488.2124	1512.5879	1821.0987	1824.1346	2927.3899	2945.8767	2962.3365	2977.7253	3024.7274	3125.9694
COCC(=O)C=O	COCC(=O)C=O	
InChI=1S/C4H6O3/c1-7-3-4(6)2-5/h2H,3H2,1H3	InChI=1S/C4H6O3/c1-7-3-4(6)2-5/h2H,3H2,1H3
