15
gdb 2181	3.76038	2.8335	1.83757	1.593	52.27	-0.2502	0.0524	0.3026	686.9143	0.125991	-382.782251	-382.775391	-382.774446	-382.813451	25.095	
O	-0.1754299291	 1.4734171978	 0.3023429872	-0.432766
C	-0.0165379235	 0.0692254313	 0.1166742416	 0.041295
C	 0.5853313321	-0.5328750189	 1.4007968375	-0.080526
O	-0.2584609274	-1.6081562559	 1.7936145927	-0.245548
C	-1.5730523553	-1.2547854402	 1.403215734	-0.115755
C	-1.4094327131	-0.63641603	 0.0031123451	 0.105539
O	-2.4378865676	 0.2416467352	-0.3860828478	-0.43545
H	-0.3602605382	 1.8583814719	-0.561158605	 0.29126
H	 0.6066791296	-0.1256551767	-0.7627053712	 0.079518
H	 1.5942315352	-0.9308966932	 1.2709873051	 0.111118
H	 0.6110942738	 0.2572717546	 2.1663821306	 0.1072
H	-2.190624566	-2.1550790331	 1.4243133703	 0.114047
H	-2.0156487347	-0.507023395	 2.084595835	 0.086043
H	-1.3697837385	-1.4279296553	-0.7503532413	 0.095675
H	-2.3087181071	 1.0416688976	 0.1409829761	 0.278348
53.0985	179.2161	232.131	303.3347	392.317	418.0611	552.5816	584.8922	637.25	679.2565	807.9271	925.9682	966.9524	995.7623	1022.9291	1074.1274	1105.8791	1120.6893	1139.3497	1210.5363	1251.7768	1253.3605	1274.8316	1310.6575	1326.1147	1360.0759	1388.7865	1431.4389	1440.3057	1500.0301	1512.7581	2956.7621	2997.1995	3038.8291	3076.7655	3102.2665	3110.4335	3756.2041	3812.8061
OC1COCC1O	O[C@H]1COC[C@H]1O	
InChI=1S/C4H8O3/c5-3-1-7-2-4(3)6/h3-6H,1-2H2	InChI=1S/C4H8O3/c5-3-1-7-2-4(3)6/h3-6H,1-2H2/t3-,4+
