17
gdb 1242	6.57424	1.25235	1.11495	1.3646	67.44	-0.252	0.0361	0.2881	1071.282	0.144776	-309.677968	-309.669192	-309.668248	-309.711516	30.851	
C	 0.0611918852	 1.4900124371	-0.1073909808	-0.396005
C	 0.0059267723	-0.0353433702	 0.0201468363	 0.172915
C	 0.6468984059	-0.527008484	 1.3127094709	-0.39012
O	-1.3347990765	-0.5233209336	 0.034121544	-0.256532
C	-1.9834293647	-0.4944362973	-1.2211749382	-0.216551
C	-3.2595301417	-1.1942131876	-1.1318787306	 0.2876
C	-4.316670492	-1.7619400591	-1.0863866126	-0.418548
H	 1.0993846499	 1.8358486835	-0.080213622	 0.11631
H	-0.3767035911	 1.8405538904	-1.046488958	 0.116262
H	-0.4816066224	 1.9572396222	 0.7205186025	 0.125949
H	 0.5351161741	-0.4848481389	-0.8381519852	 0.064029
H	 0.12640238	-0.1042985478	 2.1778294878	 0.125726
H	 0.5878946671	-1.6163662782	 1.376966681	 0.124213
H	 1.6980521786	-0.2276892758	 1.3605432756	 0.112112
H	-2.1632403931	 0.5379301315	-1.5615894955	 0.119249
H	-1.3539182876	-0.9741253775	-1.9909355744	 0.114614
H	-5.2496756139	-2.2667584445	-1.0393604807	 0.198776
39.9478	100.48	133.822	206.8613	246.5106	280.6051	330.1586	341.6864	435.2089	466.842	546.6592	606.5782	672.4081	835.4048	926.6388	933.2163	947.0302	973.825	1031.2812	1102.9862	1148.494	1168.4846	1200.5248	1251.6195	1358.0143	1368.0825	1397.8607	1413.8122	1425.8278	1479.8186	1485.1995	1495.6637	1501.5886	1512.4835	2247.4329	2948.2297	2953.6724	2981.9783	3037.4644	3044.2153	3108.0499	3111.8462	3118.3991	3125.5817	3506.9482
CC(C)OCC#C	CC(C)OCC#C	
InChI=1S/C6H10O/c1-4-5-7-6(2)3/h1,6H,5H2,2-3H3	InChI=1S/C6H10O/c1-4-5-7-6(2)3/h1,6H,5H2,2-3H3
