17
gdb 1251	7.00894	1.07185	0.98682	3.3221	62.23	-0.2472	-0.0172	0.23	1156.0424	0.145583	-346.867789	-346.859151	-346.858207	-346.90144	29.855	
C	 0.0439290907	 1.5716503603	 0.1233096596	-0.407978
C	 0.0074043109	 0.0464384348	 0.0398720973	 0.140556
O	 0.6548558867	-0.5510666861	 1.1610770319	-0.425019
C	-1.4219991021	-0.4920183867	-0.1287363689	-0.205175
C	-1.46079825	-2.0218978395	-0.2704055084	-0.268746
C	-2.8641194698	-2.5669116576	-0.178806789	 0.157533
O	-3.3980298686	-3.2620256407	-1.0043493269	-0.239677
H	 1.0715242707	 1.9194478358	 0.2580899974	 0.12872
H	-0.3624048579	 2.029203434	-0.7841457562	 0.121613
H	-0.5537829759	 1.9292192832	 0.9716683256	 0.108167
H	 0.6060030699	-0.2788324581	-0.8203136449	 0.094879
H	 0.2535921173	-0.1869333542	 1.9584916039	 0.277795
H	-2.0171955718	-0.1838790273	 0.744057367	 0.089789
H	-1.8869775965	-0.0205630862	-1.0028642144	 0.110929
H	-1.0150622244	-2.3516766922	-1.213426501	 0.118734
H	-0.874176532	-2.4487056728	 0.5546147928	 0.134069
H	-3.4070134672	-2.267322197	 0.7506642341	 0.063813
59.5354	73.9885	124.3087	177.6182	237.7671	300.3232	313.4582	361.0356	458.017	480.4844	538.2204	769.3627	821.551	869.6522	937.382	988.1593	1025.643	1050.6625	1091.9007	1120.2609	1164.2217	1192.3713	1253.2086	1288.5333	1340.9803	1346.7066	1388.4014	1405.4202	1421.986	1431.9674	1464.7748	1483.881	1493.8608	1495.9932	1836.1891	2836.2552	2999.5025	3023.3089	3027.4275	3037.8342	3060.3002	3095.2834	3101.6876	3120.9371	3793.1736
CC(O)CCC=O	C[C@@H](O)CCC=O	
InChI=1S/C5H10O2/c1-5(7)3-2-4-6/h4-5,7H,2-3H2,1H3	InChI=1S/C5H10O2/c1-5(7)3-2-4-6/h4-5,7H,2-3H2,1H3/t5-/m1/s1
