17
gdb 1562	4.53294	1.50957	1.20471	1.6698	61.77	-0.2529	-0.0225	0.2304	993.6912	0.14543	-346.855971	-346.84725	-346.846306	-346.88952	29.323	
C	 0.1230529164	 1.3400034107	 0.0071962654	-0.228251
O	-0.0413631519	-0.0575305012	-0.0293943065	-0.240275
C	 0.7445328822	-0.674922786	-1.0266328144	-0.04819
C	 0.4721151958	-2.1749090832	-0.9825041251	-0.099751
C	-0.9968591247	-2.5256698492	-1.2826575844	-0.402001
C	 1.3900310582	-2.9361689324	-1.9136926561	 0.153201
O	 2.2335993009	-2.439728413	-2.6170989436	-0.247111
H	 1.1668075769	 1.6228107003	 0.2160863731	 0.106557
H	-0.1746242185	 1.8114086975	-0.9427579737	 0.105959
H	-0.5141888726	 1.7241340559	 0.8074588758	 0.126594
H	 0.4973480699	-0.2747535035	-2.0239472878	 0.095357
H	 1.8146531189	-0.4777891784	-0.8614001375	 0.101621
H	 0.6984468352	-2.5366102267	 0.0328886804	 0.108221
H	-1.1729162723	-3.6034122027	-1.2082990124	 0.117675
H	-1.6475909554	-2.0162497887	-0.5701033131	 0.147403
H	-1.2761288254	-2.2042489104	-2.2919283525	 0.124922
H	 1.2230750464	-4.0389411291	-1.9138176975	 0.078071
84.1123	93.1303	115.5688	150.564	212.8139	234.4185	273.1169	342.2049	393.0255	461.4234	666.944	820.4571	921.4892	923.5627	946.5718	996.9114	1096.6643	1150.0623	1161.3234	1172.5139	1195.1363	1230.1355	1266.1347	1306.3666	1329.6773	1400.7669	1415.0247	1436.5862	1481.3428	1484.9961	1491.7078	1503.4568	1508.3215	1522.886	1825.564	2859.2752	2965.1565	2976.1144	2994.9007	3011.3399	3016.8007	3039.153	3103.8279	3113.9383	3140.7347
COCC(C)C=O	COC[C@@H](C)C=O	
InChI=1S/C5H10O2/c1-5(3-6)4-7-2/h3,5H,4H2,1-2H3	InChI=1S/C5H10O2/c1-5(3-6)4-7-2/h3,5H,4H2,1-2H3/t5-/m0/s1
