15
gdb 1860	5.38382	1.95351	1.61657	1.2877	58.18	-0.2601	0.0011	0.2611	762.9675	0.125543	-345.655745	-345.648913	-345.647969	-345.686551	25.757	
O	 0.0555067703	 1.4249137484	 0.0810976965	-0.430833
C	 0.0523868302	 0.0048726735	 0.028358537	 0.109853
C	-1.3560557671	-0.6434329841	-0.0191474466	-0.274861
C	-1.2381884961	-1.8602225797	-0.9740292212	 0.109853
O	-2.3707196712	-2.0813829086	-1.8033471767	-0.430833
C	 0.0392644351	-1.5744114827	-1.730839122	-0.11882
C	 0.7324643919	-0.5726226407	-1.1924320499	-0.118818
H	-0.3321854237	 1.7447646343	-0.7412055537	 0.272391
H	 0.5859267616	-0.2930896269	 0.9395100987	 0.100024
H	-1.7464703933	-0.9032166187	 0.966878407	 0.109174
H	-2.0540219055	 0.0776281991	-0.4621619265	 0.092478
H	-1.1438021547	-2.7928338894	-0.4039670124	 0.100024
H	-2.4527764415	-1.319874332	-2.3882948679	 0.272392
H	 0.3286480396	-2.1688294532	-2.5910189267	 0.103989
H	 1.6923939342	-0.1979898194	-1.5317996956	 0.103989
72.3926	213.8273	305.2464	320.2956	361.5172	426.9844	445.1191	571.3986	595.5873	751.9479	793.714	860.5434	868.6217	978.1005	987.7294	1026.6077	1035.6586	1084.9399	1106.1274	1145.0516	1148.6627	1234.0703	1274.3763	1283.1595	1314.7111	1318.8478	1365.5822	1426.1856	1434.0586	1479.8669	1677.6349	3030.8616	3033.6342	3041.2145	3112.933	3180.8055	3205.966	3796.1338	3796.7644
OC1CC(O)C=C1	O[C@H]1C[C@@H](O)C=C1	
InChI=1S/C5H8O2/c6-4-1-2-5(7)3-4/h1-2,4-7H,3H2	InChI=1S/C5H8O2/c6-4-1-2-5(7)3-4/h1-2,4-7H,3H2/t4-,5+
