14
gdb 1209	6.76311	1.32975	1.21223	3.261	60.97	-0.2478	0.0243	0.272	969.3488	0.111145	-324.575799	-324.567467	-324.566522	-324.610119	28.05	
C	-0.0867507899	 1.4563180476	 0.1431769237	-0.483266
C	 0.009761131	-0.0578744708	 0.0521589035	 0.416457
O	 1.0051126988	-0.6704724231	 0.3924217842	-0.368343
N	-1.1086031535	-0.6800994556	-0.4328527978	-0.312036
C	-1.2149795981	-2.1317010271	-0.4762884079	-0.287366
C	-2.4266097794	-2.6209891435	 0.1746482376	 0.2846
C	-3.4403925423	-3.0100842634	 0.6889115966	-0.446091
H	-0.190105877	 1.7399512463	 1.1951270969	 0.154978
H	 0.8453597232	 1.8892269884	-0.2247694667	 0.155048
H	-0.9273054909	 1.8750919279	-0.416265343	 0.114589
H	-1.9315876037	-0.139518156	-0.6405357715	 0.251003
H	-1.1847961751	-2.4914165309	-1.5139009827	 0.138152
H	-0.3163356338	-2.5119489751	 0.0203506147	 0.178645
H	-4.3255350794	-3.3660699947	 1.1553686724	 0.20363
25.5967	43.3655	93.7638	217.6274	268.4416	328.0645	393.9011	436.5071	550.8085	610.2263	617.9849	640.6624	668.3951	897.1742	949.5683	995.3453	1044.2902	1051.5598	1112.4224	1248.1466	1266.4798	1373.1044	1396.7084	1468.4612	1485.5398	1486.4292	1527.3269	1782.1288	2241.5091	3011.0131	3049.2151	3083.704	3119.9438	3142.2351	3505.3717	3653.9377
CC(=O)NCC#C	CC(=O)NCC#C	
InChI=1S/C5H7NO/c1-3-4-6-5(2)7/h1H,4H2,2H3,(H,6,7)	InChI=1S/C5H7NO/c1-3-4-6-5(2)7/h1H,4H2,2H3,(H,6,7)
