11
gdb 383	7.60375	2.27643	1.85366	2.1065	43.5	-0.2878	-0.0038	0.2839	617.6379	0.084113	-322.425235	-322.418738	-322.417794	-322.455292	22.348	
O	 0.140625481	 1.386892983	 0.0024948663	-0.411097
C	 0.1107176232	-0.0161353651	 0.0311627271	-0.061442
C	-1.3500651574	-0.5058516093	 0.023214072	-0.030136
O	-2.0430860785	 0.0294036441	-1.0975844985	-0.418825
C	-1.4257241704	-1.9745200451	 0.0655247975	 0.248194
N	-1.4502406836	-3.1298379799	 0.0658976559	-0.305275
H	-0.4619426113	 1.6591102286	-0.7014772089	 0.292511
H	 0.6395531613	-0.4670106216	-0.8256811388	 0.098313
H	 0.6134190641	-0.3453637111	 0.9454773163	 0.134367
H	-1.8584798603	-0.0960504876	 0.9020135912	 0.152113
H	-1.7587031681	-0.4469197459	-1.8874066	 0.301278
130.0019	159.639	235.1691	327.5522	342.0633	463.0023	496.2671	541.4051	588.5342	857.1359	955.066	1065.4649	1084.2185	1106.6952	1200.3166	1277.4718	1296.65	1380.8848	1420.1378	1432.199	1502.2888	2356.2452	2966.9508	3074.7742	3092.7268	3777.3992	3790.9793
OCC(O)C#N	OC[C@@H](O)C#N	
InChI=1S/C3H5NO2/c4-1-3(6)2-5/h3,5-6H,2H2	InChI=1S/C3H5NO2/c4-1-3(6)2-5/h3,5-6H,2H2/t3-/m0/s1
