19
gdb 1673	4.2449	1.58744	1.42574	2.5242	67.72	-0.2375	-0.0074	0.23	960.7105	0.16883	-310.952127	-310.942916	-310.941972	-310.986289	31.979	
C	 0.012317281	 1.575773945	 0.0410096446	-0.398004
C	-0.0289838713	 0.0451712079	 0.049333616	-0.15967
C	-1.4441246764	-0.5510946827	-0.0424918085	-0.06335
C	-2.1528519023	-0.2099682277	-1.3710896752	-0.395205
C	-1.3992610267	-2.0770501711	 0.0852249383	 0.386579
C	-2.5743921544	-2.7361942561	 0.7864135578	-0.481162
O	-0.4798796702	-2.7247835447	-0.36157619	-0.310827
H	 1.0373677438	 1.9340171004	 0.1775033321	 0.116343
H	-0.3553449827	 1.9934133253	-0.9013442249	 0.118241
H	-0.595104843	 1.9972384621	 0.8505036193	 0.110632
H	 0.5712419593	-0.3589408143	-0.7722202748	 0.117616
H	 0.4425607225	-0.322068544	 0.9689335529	 0.096926
H	-2.0585665936	-0.1577059097	 0.7791446267	 0.071659
H	-1.561147383	-0.5692353273	-2.2191795338	 0.134178
H	-3.1435517298	-0.6720306556	-1.43187152	 0.115759
H	-2.2883564728	 0.8692470259	-1.4779192718	 0.12402
H	-3.5284459272	-2.352573815	 0.4097969589	 0.134478
H	-2.5284782413	-3.8188317905	 0.662108472	 0.140189
H	-2.538066272	-2.4939016178	 1.8557053003	 0.141598
41.8721	76.5864	132.4981	189.4568	211.7602	218.5613	276.2741	312.3161	346.6802	446.4557	594.2069	601.549	754.8886	794.4346	855.5867	952.5722	964.0568	973.8236	1010.3607	1047.2872	1109.2814	1137.1232	1162.4159	1204.8632	1287.5943	1325.7111	1348.0617	1378.4537	1391.6012	1403.4135	1415.2424	1461.8898	1474.7329	1482.4252	1495.1028	1501.3842	1505.893	1511.1076	1809.4069	3011.4569	3031.4158	3033.5734	3034.9142	3038.5043	3076.286	3094.1727	3099.6761	3103.5428	3107.5788	3119.7521	3150.1942
CCC(C)C(C)=O	CC[C@@H](C)C(=O)C	
InChI=1S/C6H12O/c1-4-5(2)6(3)7/h5H,4H2,1-3H3	InChI=1S/C6H12O/c1-4-5(2)6(3)7/h5H,4H2,1-3H3/t5-/m1/s1
