14
gdb 376	6.53292	2.30631	1.82542	4.4075	54.08	-0.2424	0.0288	0.2711	680.4479	0.119301	-266.615452	-266.608241	-266.607297	-266.646318	24.789	
C	 0.0447848621	 1.4744677332	 0.08204511	-0.321706
N	-0.1140507236	 0.0382079496	-0.1087124562	-0.276293
C	 0.6759749349	-0.5268808536	-1.1998297318	-0.094475
C	 2.2089824385	-0.5298667654	-1.0082493169	-0.394449
C	 0.20773519	-1.9009356697	-1.4573062707	 0.278888
N	-0.128370366	-2.9894418836	-1.6488986189	-0.318812
H	 1.0681461401	 1.8091355987	 0.3180775902	 0.104493
H	-0.2775429723	 1.9965346486	-0.8258883737	 0.129415
H	-0.6100501137	 1.7951741855	 0.896661865	 0.132186
H	 0.0797827989	-0.4634803431	 0.7515290692	 0.228468
H	 0.4397366804	 0.0607730401	-2.0972950243	 0.131689
H	 2.5727916504	 0.4909671728	-0.8688140328	 0.128918
H	 2.4841374706	-1.1238388799	-0.1315244308	 0.131969
H	 2.7102091199	-0.9567227433	-1.8814230084	 0.139709
89.3403	170.2083	208.6117	221.6806	250.8492	349.3957	414.2624	555.3064	565.7516	717.1142	831.4836	903.1948	1016.1872	1065.4619	1093.5238	1150.997	1163.7802	1218.7467	1326.9663	1349.0416	1399.6057	1457.9865	1479.9589	1487.7572	1498.0706	1504.1735	1522.091	2362.2352	2969.9212	3025.4964	3045.9253	3061.8231	3111.2845	3121.5603	3129.2658	3527.9498
CNC(C)C#N	CN[C@@H](C)C#N	
InChI=1S/C4H8N2/c1-4(3-5)6-2/h4,6H,1-2H3	InChI=1S/C4H8N2/c1-4(3-5)6-2/h4,6H,1-2H3/t4-/m0/s1
