19
gdb 3993	5.65081	0.78075	0.74091	1.2366	72.58	-0.2425	0.0125	0.255	1551.0238	0.162185	-402.152054	-402.141941	-402.140996	-402.188143	34.394	
C	 0.0273681094	 1.364277113	-0.0238815326	-0.228854
O	 0.0030722599	-0.0412556549	 0.0332836378	-0.227585
C	-1.3001562199	-0.5717739344	-0.0514568739	-0.05028
C	-1.19327248	-2.097721409	-0.0064566875	-0.282186
C	-2.5388734653	-2.7728578471	 0.0178750219	 0.345483
C	-3.4175250234	-2.6682124641	 1.2370710099	-0.469083
N	-2.8652592297	-3.4178139148	-1.0373298377	-0.16132
O	-4.1400896105	-3.9972298824	-0.9147393805	-0.400664
H	 1.0717599078	 1.6771159247	 0.0501052641	 0.127574
H	-0.3909926376	 1.743338809	-0.9699278764	 0.104726
H	-0.5389093672	 1.8180688463	 0.8054664123	 0.102147
H	-1.9213640737	-0.1964997311	 0.7804614811	 0.085248
H	-1.7903118647	-0.2577180209	-0.9881989263	 0.096301
H	-0.6322052272	-2.4423605136	-0.8780203845	 0.125014
H	-0.6252829149	-2.3708984837	 0.8918095161	 0.113626
H	-4.3307507995	-2.1072535344	 1.0102626305	 0.145767
H	-3.7394694601	-3.6643806368	 1.5552537868	 0.149324
H	-2.8993506906	-2.1766386927	 2.0627451428	 0.119132
H	-4.2312772528	-4.4600707931	-1.7540484038	 0.305632
52.6011	65.2492	85.639	103.5254	138.7155	231.8098	269.1206	289.1249	346.8538	373.3584	400.6298	461.759	558.8244	657.9681	802.4092	830.5797	976.2161	988.7312	1003.2089	1029.2642	1070.3307	1102.4267	1162.216	1180.6972	1225.2005	1231.6072	1269.2613	1307.3648	1316.3367	1397.6102	1401.2192	1421.5651	1473.374	1479.0835	1481.2143	1484.874	1485.3427	1504.3797	1532.6475	1727.5157	2949.1263	2969.3135	2981.7515	3010.8072	3035.3344	3042.5148	3099.797	3113.0152	3113.424	3133.152	3822.7293
COCCC(C)=NO	COCCC(=NO)C	
InChI=1S/C5H11NO2/c1-5(6-7)3-4-8-2/h7H,3-4H2,1-2H3	InChI=1S/C5H11NO2/c1-5(6-7)3-4-8-2/h7H,3-4H2,1-2H3
