16
gdb 1867	5.34973	2.07798	1.59924	3.896	61.28	-0.2359	0.0378	0.2737	781.0318	0.138466	-325.835955	-325.829144	-325.8282	-325.866649	25.5	
C	-0.0638542493	 1.569379333	-0.0001112366	-0.398727
C	 0.0617533092	 0.0491658688	 0.0072345247	 0.062244
C	 0.8039823503	-0.5341475595	-1.2199157694	-0.215307
C	 1.4888907214	-1.8011264355	-0.6864252677	-0.331712
C	 1.6596376574	-1.5362395111	 0.8139939795	 0.403378
O	 2.3295507977	-2.164529847	 1.6032501558	-0.379034
N	 0.8834613444	-0.4435849003	 1.1049533994	-0.305047
H	 0.9243140122	 2.0377483256	-0.0470713394	 0.125488
H	-0.6466317087	 1.8975090354	-0.8668677189	 0.122635
H	-0.5734411968	 1.9330923817	 0.8985670553	 0.116472
H	-0.9493811277	-0.3859816667	 0.0644065734	 0.07858
H	 0.1251293865	-0.7165770637	-2.0557491067	 0.106537
H	 1.5574034047	 0.1876884563	-1.5537291255	 0.110725
H	 0.8565472134	-2.6900251727	-0.7967570554	 0.128182
H	 2.4505803167	-2.0276297915	-1.1496919461	 0.129733
H	 0.7267133185	-0.1840595029	 2.0666555975	 0.245851
110.0727	147.8073	241.0294	296.3404	444.5292	482.7836	500.2945	565.5237	619.5448	660.0465	811.8341	842.2608	911.1614	957.7437	973.1792	1008.6197	1073.9806	1106.6866	1158.8474	1197.9558	1223.1567	1267.5847	1298.6168	1334.3725	1345.2351	1397.5097	1410.1748	1431.587	1469.375	1491.5363	1497.1423	1501.2907	1832.7786	2961.1941	3032.6391	3048.1705	3050.988	3101.1626	3106.7097	3113.3504	3122.2478	3632.3015
CC1CCC(=O)N1	C[C@H]1CCC(=O)N1	
InChI=1S/C5H9NO/c1-4-2-3-5(7)6-4/h4H,2-3H2,1H3,(H,6,7)	InChI=1S/C5H9NO/c1-4-2-3-5(7)6-4/h4H,2-3H2,1H3,(H,6,7)/t4-/m0/s1
