17
gdb 1798	3.7691	2.52204	1.74985	2.7069	64.73	-0.2401	-0.0082	0.2319	768.2572	0.146603	-309.736328	-309.728474	-309.72753	-309.768317	28.834	
C	-0.2470585477	 1.4413076544	 0.0678270508	-0.490648
C	 0.2963019805	 0.0273979603	-0.0365964248	 0.328095
O	 0.8456795011	-0.5000591111	 0.9095961189	-0.322048
C	 0.134025351	-0.6994733321	-1.3449383056	 0.24643
C	-0.5579052805	-0.0051450841	-2.5019380008	-0.48648
C	 1.2679436858	-1.6710127655	-1.6619378131	-0.275353
C	-0.0433788806	-2.2087258815	-1.200509962	-0.275339
H	 0.2220788131	 2.0945601459	-0.6761275865	 0.138606
H	-1.3241721572	 1.4600349474	-0.1316433817	 0.138613
H	-0.0525326983	 1.8263603206	 1.0690230936	 0.140462
H	-0.0332567242	 0.9067974651	-2.8070049631	 0.120614
H	-0.5934434579	-0.6655920401	-3.37340137	 0.11858
H	-1.5906564119	 0.2677079666	-2.2591513439	 0.120615
H	 1.5397824114	-1.7765258737	-2.7066062193	 0.112325
H	 2.0896584442	-1.6901379219	-0.9560294426	 0.136604
H	-0.0970840561	-2.5868457953	-0.1865937612	 0.1366
H	-0.6944384127	-2.6926311251	-1.9204571286	 0.112324
48.1472	150.1426	227.3856	256.6553	283.0163	337.0855	352.4321	405.6831	551.3114	608.1196	652.7233	795.8405	825.5115	855.2251	943.1633	960.3617	963.6663	1051.6139	1060.9419	1077.8594	1091.8926	1119.1986	1166.2679	1206.0318	1315.9	1334.5068	1383.7255	1422.7804	1450.4334	1459.4141	1473.8994	1482.2539	1498.1762	1502.645	1781.0585	3029.2315	3038.5925	3089.0119	3098.9531	3103.3163	3136.438	3138.5331	3154.599	3227.1362	3240.495
CC(=O)C1(C)CC1	CC(=O)C1(C)CC1	
InChI=1S/C6H10O/c1-5(7)6(2)3-4-6/h3-4H2,1-2H3	InChI=1S/C6H10O/c1-5(7)6(2)3-4-6/h3-4H2,1-2H3
