8
gdb 3898	5.85925	2.96851	1.97029	1.5473	45.28	-0.2714	-0.12	0.1514	556.6358	0.04133	-391.337881	-391.332272	-391.331328	-391.367925	19.012	
O	-0.0072092842	-0.0289197574	 0.0033462925	-0.277572
C	-0.0696911061	 1.1704255743	 0.0104816462	 0.397205
C	-1.2708188377	 1.9788696745	 0.0309131873	-0.044902
N	-1.2748368686	 3.2718713289	 0.0381137173	 0.009086
O	-0.1020438938	 3.9132914042	 0.0259656007	-0.229629
N	 1.2004751052	 3.1575833763	 0.0038838771	 0.083776
N	 1.1660858961	 1.9439913649	-0.0023679187	-0.111418
H	-2.2423159009	 1.4961302742	 0.0410554976	 0.173455
49.0267	307.1496	382.1707	435.6606	453.3983	534.6653	635.9168	780.555	796.0881	929.7876	949.9826	1019.7106	1225.5516	1336.6382	1589.6747	1677.6967	1839.6353	3198.2709
O=C1C=NON=N1	O=c1cnonn1	
InChI=1S/C2HN3O2/c6-2-1-3-7-5-4-2/h1H	InChI=1S/C2HN3O2/c6-2-1-3-7-5-4-2/h1H
