10
gdb 146	12.11336	4.15999	3.92501	2.03	40.19	-0.2639	-0.0381	0.2258	363.3567	0.079887	-247.184334	-247.179519	-247.178575	-247.211988	16.144	
O	-0.1067522688	 0.2689337451	 0.6057961106	-0.270844
C	 0.1092672367	 1.1676152927	-0.174921634	 0.144862
C	 1.279073675	 2.0782343341	-0.0588467453	-0.0827
C	 1.496448939	 2.7013959092	 1.2927537232	-0.210983
N	 2.3836126925	 1.6552095598	 0.815424058	-0.295856
H	-0.5696452368	 1.3625356471	-1.0315900759	 0.088527
H	 1.5581001544	 2.6326128995	-0.9500281947	 0.107565
H	 1.9254436948	 3.698065062	 1.3385645979	 0.132103
H	 0.769094471	 2.4619330341	 2.0635464902	 0.13618
H	 2.1010635423	 0.7682690363	 1.2350124001	 0.251146
162.1934	267.1505	330.6872	721.559	813.0115	836.0463	913.151	957.3105	999.3503	1075.0216	1118.2239	1130.4251	1175.9704	1287.4002	1315.141	1387.7459	1420.0859	1497.7441	1800.806	2913.8992	3113.8738	3159.982	3208.4935	3461.1191
O=CC1CN1	O=C[C@H]1CN1	
InChI=1S/C3H5NO/c5-2-3-1-4-3/h2-4H,1H2	InChI=1S/C3H5NO/c5-2-3-1-4-3/h2-4H,1H2/t3-/m1/s1
