16
gdb 3527	7.12127	2.34871	2.28256	1.6087	64.81	-0.2262	0.0917	0.3179	651.3883	0.137742	-288.542593	-288.536815	-288.53587	-288.571744	23.013	
C	-0.1484466558	 1.5980148469	 0.0311356263	-0.419198
C	-0.0221098811	 0.090187761	-0.051758393	 0.069323
C	 0.8843001548	-0.5853985914	-1.0814644561	-0.075941
C	 2.13054543	-0.2715912904	-0.196884167	-0.005076
C	 2.605247638	-1.7261561299	-0.1495235185	-0.256775
C	 1.0772360871	-1.7743328885	-0.093722966	 0.005087
N	 1.0247367696	-0.552697211	 0.8653888091	-0.172478
H	 0.8124482566	 2.0999060073	-0.1174317484	 0.115862
H	-0.8424431514	 1.9683598512	-0.7312548415	 0.116601
H	-0.5362618792	 1.8941237839	 1.0113705628	 0.127569
H	-1.0017302271	-0.3863115876	 0.0870326671	 0.066715
H	 0.8263128667	-0.6209563658	-2.1756412699	 0.060084
H	 2.719600859	 0.6452665507	-0.1608723656	 0.082682
H	 3.0820910808	-2.121432933	-1.0500266918	 0.097598
H	 3.1316430561	-2.0317748675	 0.7585661434	 0.108074
H	 0.403813186	-2.619383736	 0.0624494991	 0.079872
199.9115	240.1009	271.636	437.2902	528.8024	705.65	729.1226	816.6021	838.7242	851.3038	856.7823	886.6318	926.1904	1016.8563	1020.0837	1028.2328	1043.938	1068.1564	1116.8125	1137.013	1144.0715	1154.2327	1186.6353	1195.4952	1232.7808	1264.0099	1273.8402	1317.5337	1400.2404	1416.4462	1490.776	1492.2939	1493.6265	3016.7415	3032.4653	3035.8968	3055.9042	3096.1823	3100.1555	3106.6928	3113.9729	3121.776
CC1C2C3CC2N13	C[C@H]1[C@H]2[C@@H]3C[C@H]2N13	
InChI=1S/C6H9N/c1-3-6-4-2-5(6)7(3)4/h3-6H,2H2,1H3	InChI=1S/C6H9N/c1-3-6-4-2-5(6)7(3)4/h3-6H,2H2,1H3/t3-,4-,5+,6-/m0/s1
