16
gdb 3247	5.84072	2.32372	2.10228	1.6272	64.85	-0.2232	0.0845	0.3077	677.5094	0.138058	-288.57311	-288.56711	-288.566166	-288.602586	24.005	
C	-0.0521460698	 1.4995890238	-0.0533126442	-0.312944
C	 1.2698134527	 0.7620978785	 0.0162649533	-0.339898
C	-0.0231544304	 0.0044927917	-0.0084253092	 0.424018
C	-0.5416138303	-0.9593786034	 1.0906926406	-0.310688
C	-0.9560152078	-1.9177766279	-0.0371016757	-0.031632
N	-1.9227821311	-1.1785824117	-0.8873330926	-0.334651
C	-0.4598288558	-0.9759733495	-1.0779486215	-0.148608
H	-0.3858427822	 2.0273743526	 0.8341738715	 0.112358
H	-0.3258837322	 1.9804743849	-0.986598726	 0.112904
H	 1.8920524872	 0.7441811055	-0.8733851827	 0.109349
H	 1.8279950365	 0.7928631844	 0.9469079249	 0.109785
H	 0.2629868966	-1.3541167106	 1.7170200332	 0.101878
H	-1.3613370348	-0.598762092	 1.7178611468	 0.106146
H	-0.9474062711	-3.0003332098	-0.0186231103	 0.091158
H	-2.2241344485	-1.8266770676	-1.616156117	 0.223557
H	 0.010684291	-1.1693708189	-2.0350214511	 0.087268
149.3577	262.4161	291.7173	407.8622	483.0476	578.5849	761.4311	769.6294	812.0248	832.0801	856.8913	893.5359	910.8742	938.1752	958.3309	992.965	1010.5757	1052.8908	1057.3921	1075.6654	1109.8203	1119.648	1166.5498	1185.7727	1209.7357	1232.9697	1294.4618	1314.3769	1354.4866	1410.466	1466.1209	1473.6762	1508.1905	3054.3437	3110.9105	3119.8725	3129.0601	3177.3655	3194.89	3198.5581	3215.8599	3457.7475
C1CC11CC2NC12	C1CC21C[C@H]1N[C@@H]21	
InChI=1S/C6H9N/c1-2-6(1)3-4-5(6)7-4/h4-5,7H,1-3H2	InChI=1S/C6H9N/c1-2-6(1)3-4-5(6)7-4/h4-5,7H,1-3H2/t4-,5-/m1/s1
