15
gdb 3712	6.80861	1.8713	1.63672	2.6876	62.61	-0.2313	0.0261	0.2573	780.9249	0.127531	-304.728323	-304.721644	-304.7207	-304.759587	24.075	
C	-0.1873593023	 1.5410033581	 0.0546892505	-0.365862
C	 0.0687838958	 0.0242861084	-0.0157964093	-0.301687
C	 0.8415193044	-0.5052378413	 1.1524196595	 0.375923
C	 2.1796919292	-0.8132151353	 1.3149828265	-0.297391
C	 2.3008652551	-1.2287403987	 2.6579820324	-0.002277
N	 1.1359402393	-1.1897283602	 3.2971869819	-0.231505
N	 0.2702014821	-0.7455862846	 2.3628718402	-0.242754
H	 0.756501894	 2.0921240223	 0.0957227854	 0.129668
H	-0.7467313938	 1.8812179386	-0.8221686232	 0.116813
H	-0.7641421937	 1.8052730976	 0.9466536902	 0.117218
H	-0.8896029367	-0.5045945914	-0.0963296903	 0.108352
H	 0.6239853269	-0.2106178511	-0.9290576323	 0.121139
H	 2.9505296925	-0.7477530518	 0.5637289717	 0.097681
H	 3.1859487785	-1.5588475381	 3.1822193123	 0.107403
H	-0.6990137914	-0.6404765424	 2.6122441645	 0.267279
40.9148	153.8142	209.1718	336.4773	383.6279	523.9794	635.4001	685.6638	718.8841	782.7254	804.524	893.3552	937.9772	958.3156	1039.3921	1058.0735	1064.3634	1084.9451	1138.2779	1238.1362	1263.7818	1313.0918	1351.1428	1377.1039	1408.485	1443.1105	1483.0914	1495.5111	1496.7634	1507.0572	1606.385	3027.1072	3038.6484	3079.0498	3110.3413	3118.0262	3241.5355	3265.0886	3666.4472
CCC1=CC=NN1	CCc1ccn[nH]1	
InChI=1S/C5H8N2/c1-2-5-3-4-6-7-5/h3-4H,2H2,1H3,(H,6,7)	InChI=1S/C5H8N2/c1-2-5-3-4-6-7-5/h3-4H,2H2,1H3,(H,6,7)
