11
gdb 760	9.31893	3.50517	2.55541	2.6547	47.66	-0.1956	0.0301	0.2257	479.6864	0.087859	-281.480583	-281.475278	-281.474334	-281.509007	19.37	
N	-0.0017873162	 1.4488288737	 0.1738815045	-0.607401
C	-0.0103701077	 0.0488600679	 0.0469334732	 0.196185
C	-1.0982217463	-0.8042836538	 0.024653664	-0.111711
N	-0.5858105096	-2.0672957842	-0.026525363	-0.174429
N	 0.751189225	-2.0973975397	-0.041972373	-0.221654
C	 1.1104367288	-0.8150069325	 0.0045491421	-0.056467
H	 0.8174400355	 1.8651170978	-0.2497992084	 0.244067
H	-0.8262628153	 1.8832315612	-0.2202091728	 0.241371
H	-2.1597096897	-0.6170444087	 0.0456229088	 0.118889
H	-1.0948714804	-2.9332291324	-0.0566118048	 0.271746
H	 2.1571983959	-0.5466457394	 0.0082552894	 0.099405
152.4965	316.3665	367.3259	454.2296	637.5217	673.5583	692.9713	724.2608	774.5132	853.284	946.8605	1014.0758	1069.0973	1109.8544	1171.223	1273.9826	1339.5231	1399.5009	1440.2469	1512.6806	1635.1086	1660.4029	3238.3541	3263.4298	3536.8904	3623.8249	3684.0265
NC1=CNN=C1	Nc1c[nH]nc1	
InChI=1S/C3H5N3/c4-3-1-5-6-2-3/h1-2H,4H2,(H,5,6)	InChI=1S/C3H5N3/c4-3-1-5-6-2-3/h1-2H,4H2,(H,5,6)
