13
gdb 4650	6.86014	1.27237	1.07718	6.5633	68.34	-0.2125	-0.0021	0.2104	1011.4667	0.098174	-357.696123	-357.68899	-357.688046	-357.727443	26.319	
N	 0.1035158635	 1.4009772271	 0.1387619804	-0.608803
C	-0.0273068962	 0.0052290778	 0.0474449368	 0.323862
C	-1.1119121161	-0.8364010835	 0.0412133661	-0.331422
C	-0.6029336251	-2.177507735	 0.0117808624	 0.180256
C	 0.7765751378	-2.099588253	-0.0094518203	-0.171519
N	 1.1082777284	-0.7752404204	 0.0193971629	-0.265758
C	-1.3630956907	-3.3714956461	-0.0102077625	 0.194003
N	-1.9951950103	-4.3427666818	-0.028635225	-0.35481
H	 0.3828170354	 1.8271580066	-0.7400595095	 0.250986
H	-0.7673428027	 1.8268669925	 0.4299893335	 0.255617
H	-2.1507539114	-0.5485978419	 0.0403401548	 0.111119
H	 1.5212819602	-2.8765000797	-0.0437343333	 0.145632
H	 2.0407966572	-0.4052016826	 0.0947085038	 0.270838
136.2402	150.3528	154.5106	288.8658	383.0588	498.7841	522.2616	547.6367	580.2137	644.1544	670.6525	725.7517	729.5397	793.3751	822.281	985.8762	1003.4736	1134.2383	1145.1813	1190.6273	1269.9676	1340.5524	1416.5455	1454.3986	1551.0897	1625.6515	1659.7001	2342.2825	3265.6093	3282.5143	3499.4929	3605.3083	3672.9986
NC1=CC(=CN1)C#N	Nc1cc(c[nH]1)C#N	
InChI=1S/C5H5N3/c6-2-4-1-5(7)8-3-4/h1,3,8H,7H2	InChI=1S/C5H5N3/c6-2-4-1-5(7)8-3-4/h1,3,8H,7H2
