14
gdb 2909	6.93997	2.00177	1.58413	3.9058	62.57	-0.211	-0.0019	0.2091	747.9836	0.115013	-324.612244	-324.605726	-324.604782	-324.644007	22.699	
O	-0.0764637924	-0.0380364539	 0.0006956012	-0.331687
C	-0.0028800687	 1.1736570438	 0.0093072367	 0.140082
N	 1.1590922943	 1.8851823563	 0.0024154727	-0.052726
C	 1.2608507489	 3.3571218553	 0.0131788685	-0.17356
C	 2.7935931816	 3.6339083312	-0.0020401279	-0.272839
C	 3.3987353891	 2.2465927578	-0.0193036967	-0.153632
C	 2.4420088406	 1.3195902463	-0.0160259473	 0.018012
H	-0.8902113195	 1.8366556752	 0.0244718899	 0.07106
H	 0.7589692066	 3.7792686906	-0.8625697828	 0.126334
H	 0.7792466381	 3.7648882982	 0.9069543475	 0.126328
H	 3.0863817469	 4.2228436123	-0.8788391726	 0.119774
H	 3.1061402152	 4.2097169549	 0.87664268	 0.119774
H	 4.4604678458	 2.0491110506	-0.0325022062	 0.109105
H	 2.5093706835	 0.2422638213	-0.0251585329	 0.153975
21.8896	141.524	233.9624	275.8538	481.2697	496.4211	740.2287	753.5803	801.9742	838.0051	898.35	938.8662	950.3606	994.5227	1022.94	1068.8248	1111.652	1205.0777	1235.9769	1257.8563	1305.6659	1315.6723	1342.2142	1437.6989	1447.6815	1496.4321	1523.2626	1689.3054	1788.6052	2938.8236	3029.9222	3048.227	3052.4158	3087.9016	3240.4262	3271.2845
O=CN1CCC=C1	O=CN1CCC=C1	
InChI=1S/C5H7NO/c7-5-6-3-1-2-4-6/h1,3,5H,2,4H2	InChI=1S/C5H7NO/c7-5-6-3-1-2-4-6/h1,3,5H,2,4H2
