17
gdb 2443	3.95648	3.33171	2.6153	1.418	62.84	-0.2343	0.0847	0.319	613.3067	0.151737	-309.704732	-309.699163	-309.698219	-309.733687	22.921	
C	-0.0057430003	 1.5455844974	-0.0462583511	-0.223956
C	 1.5474842592	 1.4538647315	-0.0068516557	-0.012633
C	 1.3628194098	 0.1360600457	 0.806617568	-0.255392
C	 0.0235316382	-0.0036166276	 0.0285769777	 0.141423
O	 0.2007852564	-0.5503942956	-1.2722734174	-0.275765
C	 1.4747754542	-0.2618515153	-1.8447574393	-0.061693
C	 2.0383324745	 1.1137365617	-1.424583225	-0.225126
H	-0.4183244312	 1.9934298595	 0.8620755674	 0.0931
H	-0.4760863036	 1.9849102137	-0.9299573401	 0.092588
H	 2.1104332998	 2.2759390938	 0.4406793415	 0.060903
H	 2.1072511047	-0.659398573	 0.7217990859	 0.097304
H	 1.1728956472	 0.3381267257	 1.863541811	 0.100068
H	-0.8130277005	-0.5419952721	 0.4784299161	 0.071944
H	 2.1874340348	-1.0464624278	-1.5522969482	 0.094514
H	 1.348355075	-0.3319659034	-2.9289874758	 0.105116
H	 1.7187243688	 1.9016148315	-2.116644992	 0.10164
H	 3.1329982029	 1.0720326644	-1.4664702132	 0.095965
221.9068	301.0546	427.749	440.3176	472.8307	592.7204	800.7087	809.0386	825.4696	831.1317	880.077	927.9819	939.1721	944.9543	966.8621	1040.0728	1056.7471	1092.6249	1109.1531	1125.2983	1149.8921	1196.3	1232.6159	1245.6219	1256.4383	1279.3169	1296.6051	1331.6296	1352.6008	1376.6138	1414.9322	1469.1444	1490.2729	1498.1443	1526.4844	2992.188	3027.6441	3050.9286	3062.1944	3065.589	3080.2751	3082.1175	3091.5941	3112.5307	3117.2277
C1C2CC1OCC2	C1[C@H]2C[C@@H]1OCC2	
InChI=1S/C6H10O/c1-2-7-6-3-5(1)4-6/h5-6H,1-4H2	InChI=1S/C6H10O/c1-2-7-6-3-5(1)4-6/h5-6H,1-4H2/t5-,6+
