8
gdb 787	10.18544	3.98278	2.8632	0.8171	36.17	-0.269	-0.0312	0.2378	406.9969	0.052337	-333.449362	-333.444983	-333.444039	-333.476952	15.375	
O	 0.1052528888	 1.2947594586	-0.1363984731	-0.392587
C	 0.067029953	-0.0348752694	-0.0699104146	 0.485248
N	-0.0356682491	-0.8018725627	-1.1459597282	-0.280627
N	-0.0326675129	-2.0043551588	-0.5672135374	-0.053804
N	 0.0624487416	-1.9990542133	 0.746302775	-0.097921
N	 0.1283016699	-0.7339187835	 1.0895680913	-0.288709
H	 0.1812487917	 1.6233320319	 0.7685024948	 0.322259
H	-0.098729463	-2.8598693228	-1.0977049778	 0.306141
348.2949	407.3924	438.8224	555.3822	727.5695	753.7198	779.0355	1026.5609	1071.2964	1160.5933	1191.6031	1197.4607	1294.9594	1408.0634	1517.4255	1637.3179	3654.3282	3803.4071
OC1=NNN=N1	Oc1n[nH]nn1	
InChI=1S/CH2N4O/c6-1-2-4-5-3-1/h(H2,2,3,4,5,6)	InChI=1S/CH2N4O/c6-1-2-4-5-3-1/h(H2,2,3,4,5,6)
