17
gdb 2261	3.57308	2.75634	2.11342	1.316	64.22	-0.2446	0.0773	0.3219	705.5529	0.148163	-309.691634	-309.684511	-309.683567	-309.722219	27.28	
C	-0.0455459117	 1.5297148746	 0.0002799592	-0.504652
C	 0.0496296306	 0.0307581188	 0.0018472376	 0.373321
C	-0.840608155	-0.8512870064	 0.8363936286	-0.317733
C	 0.6473314569	-0.9443907735	 1.0293133791	-0.094073
C	 1.2422151858	-1.8115676971	-0.0829247992	-0.267611
C	 0.6610104466	-0.79510584	-1.1281717857	 0.059549
O	-0.2824056385	-1.2504654854	-2.0758233204	-0.43596
H	 0.9057904165	 1.9931191978	-0.2868081593	 0.111244
H	-0.8100772692	 1.8754936887	-0.7056077366	 0.12701
H	-0.3159145526	 1.9101479615	 0.99088459	 0.115109
H	-1.3837698817	-0.3297503529	 1.6185621287	 0.10442
H	-1.3876725534	-1.6727317314	 0.3815751605	 0.11522
H	 1.1245212948	-0.7132866684	 1.9741641912	 0.081678
H	 2.3342361765	-1.8497771215	-0.0934065621	 0.095566
H	 0.8459285506	-2.8304467811	-0.1513785074	 0.092864
H	 1.472722434	-0.2400107854	-1.6202444753	 0.062547
H	 0.1820137596	-1.7776718282	-2.7336893788	 0.281501
140.3543	186.6962	239.4016	274.8626	305.8111	377.3876	439.1383	541.7031	625.8594	706.1276	806.8634	838.8229	875.5389	935.6761	960.9698	978.984	1015.0566	1044.3053	1072.3158	1088.6908	1105.8785	1135.3636	1174.569	1204.3268	1245.9081	1257.922	1279.2859	1328.7241	1384.0049	1417.9302	1437.1846	1477.6519	1485.9129	1499.6508	1507.6319	2991.5045	3019.9929	3040.9178	3078.2904	3093.6273	3101.9461	3115.6078	3180.9363	3201.7133	3814.9097
CC12CC1CC2O	C[C@]12C[C@H]1C[C@H]2O	
InChI=1S/C6H10O/c1-6-3-4(6)2-5(6)7/h4-5,7H,2-3H2,1H3	InChI=1S/C6H10O/c1-6-3-4(6)2-5(6)7/h4-5,7H,2-3H2,1H3/t4-,5-,6+/m1/s1
