14
gdb 1594	3.58259	2.33985	1.52089	2.3072	58.06	-0.2691	-0.0369	0.2322	788.893	0.110987	-324.616647	-324.608557	-324.607613	-324.64962	27.378	
C	-0.8743363566	 1.6426983462	-0.5085359149	-0.386641
C	-0.1493964333	 0.3057766618	-0.2907706241	-0.23966
C	-1.0700075357	-0.7613773806	 0.1019303839	 0.268152
N	-1.8027583191	-1.6063623417	 0.3947364843	-0.322771
C	 0.7071472558	-0.1057558137	-1.5258451645	 0.391596
C	 1.2536865081	-1.5144547029	-1.5442723511	-0.485599
O	 0.932995648	 0.7026351137	-2.3889808847	-0.276182
H	-0.1492490421	 2.401572938	-0.8045750884	 0.147574
H	-1.6152008615	 1.5526842523	-1.3058060279	 0.147203
H	-1.3797305902	 1.9571546331	 0.4068933729	 0.134022
H	 0.5750698294	 0.4145822581	 0.5308784914	 0.151166
H	 1.738814257	-1.7581675	-0.59291528	 0.145999
H	 0.4329718241	-2.2288301006	-1.6685902562	 0.174737
H	 1.961592066	-1.6206001839	-2.3663973706	 0.150404
35.4884	126.3744	157.2141	187.019	234.1568	267.6836	384.7797	462.0633	512.4945	567.2161	620.6425	726.4624	872.8863	953.2768	971.9598	1066.3811	1103.3808	1127.0865	1192.1738	1267.6555	1307.215	1388.2918	1411.3376	1458.9884	1472.7523	1486.9313	1493.9417	1830.343	2352.8375	3004.9789	3044.6493	3065.231	3106.647	3141.8337	3155.6049	3159.6815
CC(C#N)C(C)=O	C[C@@H](C#N)C(=O)C	
InChI=1S/C5H7NO/c1-4(3-6)5(2)7/h4H,1-2H3	InChI=1S/C5H7NO/c1-4(3-6)5(2)7/h4H,1-2H3/t4-/m0/s1
