10
gdb 3847	5.8575	3.03769	2.00033	3.4961	52.74	-0.2636	-0.1042	0.1594	578.1077	0.067602	-355.457663	-355.452261	-355.451316	-355.487684	19.151	
N	-0.0335600813	 1.290728719	 0.0095699893	-0.491376
C	-0.0475907139	 0.0295028846	 0.0030591226	 0.461174
O	 1.1747339089	-0.6771457573	-0.0078089874	-0.267173
N	 1.2374292379	-2.0537795063	-0.0160592135	-0.024281
C	 0.1110343136	-2.6707651119	-0.0128710249	 0.009436
C	-1.1577481858	-1.969126146	-0.001096567	 0.006821
N	-1.2394459962	-0.6896834525	 0.0065252462	-0.229398
H	 0.9250600431	 1.640145077	 0.0055752009	 0.239142
H	 0.1700363153	-3.7537488911	-0.0194496492	 0.151423
H	-2.0835931316	-2.5435380756	 0.001438423	 0.144232
38.1373	325.383	451.4686	518.8305	579.2169	608.7334	765.7829	794.225	870.1615	886.3204	892.2205	995.1803	997.9038	1011.744	1039.9287	1244.6071	1342.6006	1417.053	1613.8644	1697.3279	1742.4505	3139.537	3201.2088	3500.0261
N=C1ON=CC=N1	[NH]C1=N[CH]C=NO1	
InChI=1S/C3H3N3O/c4-3-5-1-2-6-7-3/h1-2,4H	InChI=1S/C3H3N3O/c4-3-5-1-2-6-7-3/h1-2,4H
