12
gdb 4749	5.36217	1.43661	1.13305	4.5166	63.84	-0.2249	-0.0602	0.1647	949.4311	0.084995	-414.706681	-414.700049	-414.699105	-414.737561	24.456	
O	 0.1111774444	 1.3507894703	-0.1010474342	-0.430103
C	 0.06960027	 0.0070984072	-0.0681798973	 0.354811
C	-0.0098181143	-0.8316848252	-1.170043084	-0.182181
N	-0.0242864466	-2.0892114451	-0.6332459431	-0.264514
C	 0.0436675646	-1.9731196432	 0.7275679804	 0.25863
C	 0.0461704502	-3.1547656728	 1.5821300242	 0.090416
O	 0.103335207	-3.1534583821	 2.7884202893	-0.259948
N	 0.1020124835	-0.6909445612	 1.0842460602	-0.358413
H	 0.164416688	 1.6469315484	 0.8167309081	 0.309717
H	-0.0539752891	-0.6395738531	-2.2275451188	 0.149235
H	-0.0764229104	-2.9522255029	-1.1505729132	 0.277473
H	-0.0121005573	-4.1076365303	 1.0022477684	 0.054877
144.6357	178.4646	229.0751	379.8425	408.544	430.0862	495.7806	563.8662	679.7659	688.26	697.7184	747.4302	808.2349	1008.2506	1014.8466	1047.6646	1113.4803	1184.4544	1252.8085	1343.1295	1413.6929	1447.6281	1480.0321	1543.4818	1633.5928	1802.6175	2834.5059	3292.5251	3650.3873	3793.778
OC1=CNC(C=O)=N1	Oc1c[nH]c(C=O)n1	
InChI=1S/C4H4N2O2/c7-2-3-5-1-4(8)6-3/h1-2,8H,(H,5,6)	InChI=1S/C4H4N2O2/c7-2-3-5-1-4(8)6-3/h1-2,8H,(H,5,6)
