13
gdb 4370	4.14753	2.0335	1.36517	2.235	63.4	-0.2367	-0.0088	0.2279	833.5178	0.099262	-391.049543	-391.042612	-391.041668	-391.080314	26.005	
N	-0.0081330717	 1.3243177824	-0.0841995612	-0.554658
C	 0.0146199176	-0.0285796977	-0.0295716676	 0.442669
N	-1.1802010586	-0.6559696675	-0.0239155547	-0.327102
C	-1.077926334	-1.9802094904	-0.0037006294	 0.071242
N	 0.0345334195	-2.7058698565	 0.0146757793	-0.327097
C	 1.1586660954	-1.959168113	 0.01610756	 0.442652
N	 2.3345654885	-2.6287993501	 0.0686749753	-0.554665
N	 1.2133111345	-0.6225470744	-0.0078747548	-0.368379
H	 0.8488831735	 1.8248053688	 0.0727870358	 0.263605
H	-0.8892790141	 1.7863951959	 0.0564814011	 0.266798
H	-2.014931959	-2.5354293917	-0.0019964351	 0.114541
H	 2.3162873352	-3.6238005762	-0.0705545418	 0.266794
H	 3.1846969431	-2.1177068696	-0.0916131771	 0.263601
183.3672	197.2569	255.8932	261.2939	335.5809	463.6653	469.1758	555.9184	559.8434	587.0166	617.5334	767.6839	843.0851	849.6922	991.539	993.1358	1027.4182	1033.8912	1167.7436	1284.8409	1349.9297	1378.8848	1483.3204	1512.5095	1587.125	1611.4502	1640.2472	1655.7907	3145.5527	3621.2784	3622.7912	3758.1502	3758.4477
NC1=NC=NC(N)=N1	Nc1ncnc(N)n1	
InChI=1S/C3H5N5/c4-2-6-1-7-3(5)8-2/h1H,(H4,4,5,6,7,8)	InChI=1S/C3H5N5/c4-2-6-1-7-3(5)8-2/h1H,(H4,4,5,6,7,8)
