17
gdb 3010	4.88846	1.63176	1.33121	1.1263	60.39	-0.2646	0.0743	0.3389	911.0631	0.146822	-346.826923	-346.818773	-346.817829	-346.859406	28.783	
C	 0.1225131144	 1.7006647436	-0.1396145892	-0.399259
C	 0.0240523903	 0.1805667759	 0.0450995204	 0.000728
C	 0.605975352	-0.5766915356	-1.1511529092	-0.076181
O	-0.1307359012	-0.2095182613	-2.3081826492	-0.424793
C	 0.7190107664	-0.2564004655	 1.3155512056	 0.090354
C	-0.0012168277	-0.454477815	 2.578528087	-0.181848
O	 0.4277098106	-1.5720199838	 1.7978227865	-0.243912
H	 1.1697392199	 2.024719524	-0.173881129	 0.109536
H	-0.3501867533	 1.9976361411	-1.0776860228	 0.140301
H	-0.3656413952	 2.232138385	 0.6831263607	 0.11127
H	-1.0321990646	-0.1056702643	 0.1230369946	 0.086886
H	 1.6744599832	-0.3230853834	-1.2623883582	 0.079141
H	 0.5377284112	-1.6569811765	-0.9578222067	 0.105579
H	 0.2184749869	-0.7018181253	-3.0562876632	 0.287747
H	 1.7781930363	 0.0068064559	 1.37809725	 0.087362
H	 0.5147358176	-0.3214266031	 3.528459775	 0.113509
H	-1.0783430369	-0.2937095917	 2.6094463175	 0.113579
82.3758	112.2756	179.2546	216.1159	243.0072	259.0651	312.1053	417.1309	465.8887	516.4784	808.2001	863.8129	886.2424	932.0895	958.662	972.4637	1072.9575	1084.544	1110.6884	1157.0078	1164.1388	1169.4312	1195.2983	1244.3468	1265.3402	1293.3052	1311.9659	1358.8018	1401.6164	1448.7344	1457.9936	1494.7402	1505.3944	1523.3203	1532.0114	2953.7447	3012.5219	3031.3389	3038.889	3076.0054	3082.5541	3096.8053	3135.3534	3167.5844	3835.8926
CC(CO)C1CO1	C[C@@H](CO)[C@H]1CO1	
InChI=1S/C5H10O2/c1-4(2-6)5-3-7-5/h4-6H,2-3H2,1H3	InChI=1S/C5H10O2/c1-4(2-6)5-3-7-5/h4-6H,2-3H2,1H3/t4-,5+/m0/s1
