15
gdb 4751	6.52424	1.29318	1.08686	3.1257	78.97	-0.202	0.0165	0.2185	1055.5507	0.118998	-325.533012	-325.5253	-325.524356	-325.565136	28.454	
C	 0.0035414922	 1.4533945136	 0.0087851537	-0.335997
N	-0.0357241653	 0.0054118423	-0.0019062323	 0.025099
C	-0.004117664	-0.7834611827	-1.1290256427	-0.07747
C	 0.0389118833	-2.0971125326	-0.7389216704	-0.29318
C	 0.0365828782	-2.1169754152	 0.693002135	 0.143723
C	-0.0060774927	-0.7939149614	 1.1052183847	-0.211146
C	 0.0603803273	-3.2556897749	 1.5307151094	 0.253006
C	 0.0825168569	-4.234620821	 2.2333525768	-0.464705
H	 1.0322291874	 1.8312769419	-0.0052152729	 0.142963
H	-0.5241136739	 1.8411301031	-0.8657058619	 0.143582
H	-0.4949814984	 1.8270706053	 0.9059609095	 0.145088
H	-0.0163091721	-0.335304564	-2.1098759337	 0.119731
H	 0.0537052367	-2.9608395925	-1.3841871119	 0.105063
H	-0.0181625021	-0.3749460825	 2.0983503909	 0.124945
H	 0.1012555966	-5.0947376994	 2.8545353256	 0.179297
74.4581	134.9656	147.2868	216.5297	348.5984	463.7502	524.7305	534.7829	544.7708	613.211	642.5319	660.2495	690.4869	705.0867	781.0499	822.6009	987.901	1014.6889	1083.6219	1107.8095	1148.6033	1186.5452	1253.2142	1363.1418	1397.0027	1405.5015	1455.5549	1488.6549	1512.35	1548.6881	1575.7137	2229.1549	3033.7009	3103.5906	3134.8169	3252.8808	3265.7766	3273.0109	3507.0222
CN1C=CC(=C1)C#C	Cn1ccc(c1)C#C	
InChI=1S/C7H7N/c1-3-7-4-5-8(2)6-7/h1,4-6H,2H3	InChI=1S/C7H7N/c1-3-7-4-5-8(2)6-7/h1,4-6H,2H3
