15
gdb 1623	3.87468	2.07872	1.43592	0.1804	59.02	-0.253	0.0305	0.2834	831.6567	0.121518	-345.610574	-345.601986	-345.601042	-345.643073	30.699	
C	 0.0596890946	 1.5535636196	-0.0354675872	-0.409374
C	 0.0620843907	 0.0280899235	-0.0256252545	 0.124631
O	 0.8293657106	-0.5021379101	 1.0423676964	-0.420291
C	-1.3838722418	-0.5382725218	 0.0048200116	-0.067499
O	-2.1640882417	-0.0256810284	-1.0732121903	-0.417843
C	-1.3901720158	-2.0009769891	 0.0241170982	 0.301117
C	-1.4043047293	-3.2014688225	-0.0347917782	-0.441023
H	 1.083365057	 1.9307050848	-0.1025686786	 0.122925
H	-0.5235723278	 1.9355199902	-0.875867533	 0.137171
H	-0.3896231606	 1.9431038538	 0.8877016946	 0.104697
H	 0.5443059518	-0.3490765916	-0.9358202793	 0.091163
H	 0.5119079164	-0.106241763	 1.8618890542	 0.280038
H	-1.8694042544	-0.1613836948	 0.9165408469	 0.104816
H	-1.9802429497	-0.5720905139	-1.8451826453	 0.289177
H	-1.4148832299	-4.2631417266	-0.0636381956	 0.200297
73.0069	140.3003	205.5512	235.6144	257.4685	266.1037	281.1028	362.7379	416.1269	459.7977	534.2174	595.8526	632.5086	670.0861	848.1429	907.2742	987.8925	1054.4703	1072.9307	1119.1578	1144.4113	1234.4438	1274.7026	1319.9842	1372.2135	1395.5966	1413.9646	1417.6194	1488.6592	1495.266	2234.1303	3007.0988	3023.0365	3045.1133	3103.228	3139.4368	3503.5981	3795.8271	3811.5543
CC(O)C(O)C#C	C[C@@H](O)[C@@H](O)C#C	
InChI=1S/C5H8O2/c1-3-5(7)4(2)6/h1,4-7H,2H3	InChI=1S/C5H8O2/c1-3-5(7)4(2)6/h1,4-7H,2H3/t4-,5+/m1/s1
