12
gdb 76	9.69683	4.1533	3.01703	1.1876	43.57	-0.2595	0.0352	0.2948	443.1687	0.102062	-248.416462	-248.410358	-248.409414	-248.445651	20.256	
C	-0.0916069514	 1.3754004601	-0.0072942591	-0.222029
O	-0.0696453372	-0.0483158103	-0.1114881209	-0.225889
C	 0.6811462531	-0.5614267288	-1.1073245763	 0.400525
C	 0.6040529833	-2.0670154987	-1.0876689236	-0.457987
N	 1.3264553326	 0.1926634321	-1.8996773119	-0.524658
H	 0.9146391568	 1.7684365489	 0.1625746035	 0.135613
H	-0.4856282569	 1.8262461472	-0.9223521639	 0.135604
H	-0.739714304	 1.600074234	 0.8411060529	 0.122801
H	-0.4343006504	-2.3924216178	-1.203252047	 0.145967
H	 1.2062711041	-2.5004997736	-1.8874563954	 0.125501
H	 0.9565133742	-2.4497667017	-0.1250183847	 0.145966
H	 1.8350411459	-0.3610436113	-2.5848605537	 0.218587
105.1355	165.1434	189.2908	299.6424	425.3594	576.9214	615.3247	855.065	869.9158	982.0594	1068.3203	1072.4664	1120.949	1181.4057	1220.1482	1370.0599	1410.328	1471.8087	1477.569	1477.9333	1485.4605	1500.2315	1729.7642	3044.7905	3048.7563	3111.8666	3116.539	3144.1433	3146.8601	3516.9716
COC(C)=N	CO[C](C)[NH]	
InChI=1S/C3H7NO/c1-3(4)5-2/h4H,1-2H3	InChI=1S/C3H7NO/c1-3(4)5-2/h4H,1-2H3
