13
gdb 1878	5.8367	2.25619	1.73848	2.9586	50.43	-0.2728	0.0037	0.2765	698.5175	0.101746	-381.635881	-381.629515	-381.628571	-381.666299	22.667	
C	 0.0739709349	 1.5540400775	 0.014207367	-0.402039
C	 0.1001800671	 0.0457869855	-0.0018780403	 0.231502
O	 0.7772724676	-0.4267728625	-1.1477911106	-0.25114
C	 1.4184340408	-1.6297078874	-0.7762155829	-0.227203
C	 1.586113694	-1.5162747793	 0.7352759509	 0.403197
O	 2.2380926868	-2.1872944073	 1.4763799251	-0.321928
O	 0.8236614531	-0.4629598154	 1.1305032618	-0.225527
H	 1.0952863089	 1.9418214637	 0.0084421378	 0.139338
H	-0.4522085005	 1.9169339202	-0.872438198	 0.138966
H	-0.4457885002	 1.9125720289	 0.9057621958	 0.138932
H	-0.9154401561	-0.380008753	 0.0467232816	 0.090227
H	 0.8175211677	-2.5209159591	-1.0149704181	 0.133123
H	 2.3841000658	-1.7107589017	-1.2795291201	 0.152551
114.0598	158.2644	217.8749	308.5057	481.6132	504.9313	560.519	672.2262	708.3646	843.2256	877.4483	939.4	1028.2434	1077.875	1093.532	1137.7293	1154.3107	1208.7599	1234.1454	1340.614	1382.3569	1397.0561	1431.2252	1482.7389	1484.6975	1495.9105	1904.2899	2974.6027	2996.5919	3056.5813	3112.2378	3137.8099	3143.5834
CC1OCC(=O)O1	C[C@H]1OCC(=O)O1	
InChI=1S/C4H6O3/c1-3-6-2-4(5)7-3/h3H,2H2,1H3	InChI=1S/C4H6O3/c1-3-6-2-4(5)7-3/h3H,2H2,1H3/t3-/m0/s1
