13
gdb 68	7.66289	3.70925	2.79937	2.6921	46.58	-0.2469	-0.0188	0.2281	482.0475	0.112328	-232.364952	-232.358577	-232.357633	-232.394589	21.434	
C	-0.0262964684	 1.5387711573	-0.0078374735	-0.398043
C	 0.0146890426	 0.0009531038	 0.0016603687	-0.040884
C	 0.7473786206	-0.5338885943	 1.2442047143	-0.398015
C	-1.4021126421	-0.5385925661	-0.015578197	 0.170986
O	-1.876204545	-1.2358235079	-0.8739955942	-0.24686
H	 0.9882369571	 1.9462508039	 0.0370552186	 0.124949
H	-0.5072508977	 1.9215342186	-0.9128556537	 0.12968
H	-0.5775651415	 1.923608833	 0.8579638573	 0.12112
H	 0.5058467992	-0.3642109081	-0.9061912393	 0.096661
H	 0.2295837958	-0.2390940328	 2.1643105195	 0.121119
H	 0.8169273582	-1.6255949882	 1.2297343831	 0.129715
H	 1.7626715288	-0.1284656594	 1.290507547	 0.124949
H	-2.0086150977	-0.2279274198	 0.8712166592	 0.064624
69.795	212.2783	232.6246	327.7511	328.8303	350.3753	542.5922	842.2108	916.7833	930.9168	958.2106	986.0103	1137.1519	1176.503	1183.6371	1312.9832	1343.5087	1396.391	1412.8606	1432.6536	1487.0579	1490.7591	1503.628	1511.3229	1838.2988	2828.0254	3030.6611	3033.5828	3061.0574	3098.2975	3104.6816	3111.8082	3113.1297
CC(C)C=O	CC(C)C=O	
InChI=1S/C4H8O/c1-4(2)3-5/h3-4H,1-2H3	InChI=1S/C4H8O/c1-4(2)3-5/h3-4H,1-2H3
