18
gdb 3515	6.20181	1.82642	1.69553	1.0794	67.9	-0.2224	0.0901	0.3125	807.0813	0.161259	-289.794376	-289.787572	-289.786628	-289.825266	25.893	
C	-0.1193495104	 1.1384951785	-0.4473573872	-0.227665
C	 1.2258174629	 0.9866347946	 0.177051746	-0.21937
N	 0.3003427647	-0.1361277482	 0.1169575506	-0.081359
C	-0.2885314698	-0.6156048258	 1.3519302266	 0.090325
C	-0.8272055897	 0.2990500258	 2.5041059329	-0.249339
C	-1.9674884563	-0.7379530555	 2.6994473812	-0.213389
C	-1.6889550655	-1.2663156705	 1.2668672128	-0.226993
H	-0.8473058881	 1.7460007647	 0.0860134477	 0.109227
H	-0.2267674492	 1.1544910432	-1.5285858303	 0.114335
H	 2.1191592644	 0.9035884247	-0.4362900922	 0.113954
H	 1.3764572382	 1.4770560364	 1.1376739434	 0.110515
H	 0.4255620941	-1.3289913483	 1.7793538362	 0.081028
H	-0.1630441558	 0.5011637231	 3.3477658543	 0.094334
H	-1.2223368531	 1.2495667726	 2.1344656142	 0.102204
H	-1.7135828551	-1.4789878385	 3.4624311997	 0.103523
H	-2.9665463325	-0.351568849	 2.9108850506	 0.097803
H	-2.3059915132	-0.7488191833	 0.525497862	 0.102793
H	-1.7437761156	-2.3413722744	 1.0822919416	 0.098076
77.5321	147.8807	206.7695	292.2471	427.7246	502.2219	572.1476	730.6021	784.9723	807.2793	852.5745	894.5863	908.9973	929.2054	950.7973	982.901	1017.6933	1043.9079	1084.5874	1116.2568	1120.3445	1149.9466	1175.8184	1182.3264	1194.2203	1241.9784	1250.0334	1258.9478	1272.4185	1296.8636	1337.9821	1386.9574	1472.5688	1486.0681	1493.9371	1510.5957	1520.199	3036.6865	3054.2064	3057.6689	3063.4085	3092.504	3101.3366	3103.311	3109.9372	3123.5877	3172.3971	3187.45
C1CN1C1CCC1	C1CN1C1CCC1	
InChI=1S/C6H11N/c1-2-6(3-1)7-4-5-7/h6H,1-5H2	InChI=1S/C6H11N/c1-2-6(3-1)7-4-5-7/h6H,1-5H2
