10
gdb 2116	3.8886	3.70076	1.89618	5.7018	50.3	-0.2435	-0.0954	0.148	597.8913	0.067637	-359.362011	-359.356349	-359.355405	-359.391483	20.461	
O	-0.0208853014	-0.0351190131	 0.003619486	-0.307418
C	-0.0130294321	 1.1646102362	 0.0101353564	 0.326993
N	-1.1181073996	 2.0106214155	 0.0287671762	-0.33186
C	-0.7105232212	 3.3394012112	 0.030600339	 0.007911
C	 0.6328238318	 3.4876586149	 0.0141195561	-0.263434
C	 1.2213118804	 2.1494149002	 0.0000169477	 0.300665
O	 2.3685367443	 1.7789692757	-0.0170903255	-0.294178
H	-2.0719216783	 1.6905507997	 0.0389988621	 0.276072
H	-1.4651302925	 4.1150050638	 0.0441664059	 0.153616
H	 1.1770987086	 4.4179852858	 0.011806906	 0.131632
133.6017	276.5052	310.2308	447.7113	541.3023	557.4778	615.4043	739.8116	743.7737	793.2616	845.9322	959.3941	1029.7602	1083.0306	1126.695	1242.1036	1345.3858	1421.8465	1621.8613	1823.1639	1867.8497	3226.2613	3272.1198	3664.9181
O=C1NC=CC1=O	O=C1NC=CC1=O	
InChI=1S/C4H3NO2/c6-3-1-2-5-4(3)7/h1-2H,(H,5,6,7)	InChI=1S/C4H3NO2/c6-3-1-2-5-4(3)7/h1-2H,(H,5,6,7)
