15
gdb 2050	4.92511	2.41829	2.13885	0.6499	56.56	-0.2247	0.0704	0.2951	661.6892	0.124062	-345.599912	-345.593248	-345.592304	-345.62991	25.635	
C	-0.0210742272	 1.5714173236	-0.004611965	-0.463872
C	 0.0380274631	 0.0653968356	-0.0595523782	 0.370841
O	-1.1114004054	-0.5977604953	 0.4076954433	-0.465229
C	 0.630003673	-0.7411122679	-1.1982131661	-0.163961
C	 1.9216262986	-0.1041324249	-1.6884651006	-0.102637
O	 2.4509132297	-0.0309627284	-0.33299838	-0.285142
C	 1.3026970442	-0.7230211875	 0.1637897631	 0.022184
H	 0.9386118346	 2.0133344645	-0.2801509494	 0.14038
H	-0.8008003857	 1.9580281097	-0.6683341255	 0.123802
H	-0.2515446649	 1.9013648258	 1.0160225221	 0.106992
H	-1.1960645867	-0.4081448007	 1.3490557862	 0.283967
H	 0.0580937315	-1.5159805445	-1.6894734856	 0.107812
H	 2.5335588736	-0.777873631	-2.2984868934	 0.114066
H	 1.8654923257	 0.8795513023	-2.1689255083	 0.106696
H	 1.4388387859	-1.4792834614	 0.9294369275	 0.1041
196.6772	224.2048	259.6608	306.6184	363.0118	396.1232	448.6217	525.1471	677.2551	758.5361	834.2843	906.3186	943.8367	958.5945	980.5224	998.1451	1021.1093	1072.8385	1090.7653	1107.0099	1159.5547	1187.3964	1229.0318	1280.9478	1313.2952	1336.3001	1408.7134	1436.1154	1490.3386	1496.5636	1520.6558	3025.8999	3029.2172	3073.7169	3090.3581	3135.2037	3170.0186	3213.1819	3791.1381
CC1(O)C2COC12	C[C@@]1(O)[C@H]2CO[C@@H]12	
InChI=1S/C5H8O2/c1-5(6)3-2-7-4(3)5/h3-4,6H,2H2,1H3	InChI=1S/C5H8O2/c1-5(6)3-2-7-4(3)5/h3-4,6H,2H2,1H3/t3-,4+,5+/m0/s1
