16
gdb 1966	8.12337	1.50529	1.33845	2.653	62.33	-0.2298	-0.0228	0.2071	897.3438	0.13542	-325.767721	-325.760417	-325.759472	-325.79919	26.33	
C	-0.0687412795	 1.5249758561	 0.0776331836	-0.380303
C	-0.075912434	 0.0017287789	-0.0187883174	-0.12282
N	 0.6371167043	-0.4675256473	-1.1939858517	-0.07765
C	 0.0130160921	-0.2384469375	-2.5201351285	-0.28862
C	 0.3597708052	-1.6930909977	-2.8699917865	 0.393123
O	 0.3607654006	-2.3514209925	-3.8647576502	-0.278907
C	 0.7233970784	-1.9322000752	-1.3976154775	-0.285829
H	 0.9570614679	 1.9031600417	 0.1055791788	 0.128342
H	-0.5734176495	 1.9787865855	-0.782017395	 0.119892
H	-0.5896073659	 1.8559693603	 0.9810138244	 0.116675
H	 0.418020754	-0.4261228582	 0.8616609983	 0.107473
H	-1.1218358858	-0.3682961266	-0.0066365492	 0.074298
H	-1.0798738643	-0.0862645485	-2.4908369839	 0.114781
H	 0.4644293531	 0.5497252974	-3.1311167735	 0.13307
H	 1.6976198667	-2.3836182688	-1.1818801763	 0.131832
H	-0.0615590233	-2.5128835876	-0.8835581056	 0.114645
86.4944	112.5662	203.8645	241.5059	343.4606	389.8766	433.0778	499.8946	632.98	749.4501	771.4327	810.353	930.2522	978.1459	1020.4931	1058.2157	1077.7146	1092.8568	1119.8233	1156.5002	1192.764	1221.9171	1256.0055	1299.5447	1320.2081	1393.3562	1414.8354	1457.4526	1478.6787	1489.8552	1494.298	1513.4714	1921.7203	2892.4336	2961.0074	2970.5575	3038.6106	3048.9222	3068.0004	3073.0241	3106.5039	3120.4204
CCN1CC(=O)C1	CCN1CC(=O)C1	
InChI=1S/C5H9NO/c1-2-6-3-5(7)4-6/h2-4H2,1H3	InChI=1S/C5H9NO/c1-2-6-3-5(7)4-6/h2-4H2,1H3
