16
gdb 4500	3.5318	1.80181	1.21898	2.2307	68.5	-0.2185	0.0164	0.2349	987.0249	0.130197	-379.970881	-379.962442	-379.961498	-380.003764	29.92	
C	 0.0993398773	 1.4061237273	 0.1626063427	-0.488695
C	-0.0372438653	-0.0725595066	 0.0874166073	 0.376784
N	-1.1185106203	-0.7807390709	 0.1837284077	-0.353413
C	-0.6972081883	-2.103761821	 0.0454998205	 0.255245
C	-1.6450700588	-3.2521120141	 0.0966563325	-0.494912
C	 0.6466811365	-2.1225673399	-0.1308831768	 0.176185
N	 1.5580813535	-3.1592095858	-0.3147866974	-0.600167
O	 1.0870149679	-0.8021179509	-0.1050465848	-0.200504
H	 0.7570687612	 1.7013234975	 0.9869964245	 0.141179
H	 0.5279548475	 1.8112411114	-0.7601901438	 0.14119
H	-0.8868993555	 1.8436343375	 0.3194059164	 0.154497
H	-1.1063746703	-4.1932556803	-0.0333882844	 0.134998
H	-2.1760529011	-3.2794741403	 1.054376529	 0.131847
H	-2.4039925481	-3.1689526312	-0.6888567415	 0.131856
H	 2.2560396466	-3.2009680329	 0.4213804124	 0.246956
H	 2.0443897872	-3.0987901299	-1.2039930242	 0.246953
98.7143	110.798	174.5474	185.0072	247.8054	251.3178	278.6861	359.5712	492.8542	613.4751	661.8149	662.7306	703.7647	772.5722	813.4259	977.824	993.2751	1040.321	1065.3855	1070.6561	1081.8663	1214.9235	1249.6141	1311.5642	1361.1659	1410.7313	1420.7904	1476.3139	1481.2539	1481.3193	1489.553	1619.7621	1652.2652	1724.497	3036.013	3041.6429	3088.306	3094.7991	3131.7055	3155.7115	3493.127	3558.3004
CC1=NC(C)=C(N)O1	Cc1nc(C)c(N)o1	
InChI=1S/C5H8N2O/c1-3-5(6)8-4(2)7-3/h6H2,1-2H3	InChI=1S/C5H8N2O/c1-3-5(6)8-4(2)7-3/h6H2,1-2H3
