16
gdb 3214	3.40809	3.21879	2.20192	1.8961	59.79	-0.2297	0.0626	0.2923	661.4908	0.136937	-325.725274	-325.718383	-325.717439	-325.755702	26.024	
C	-0.205939396	 1.5911630194	 0.0445822985	-0.408187
C	 0.0307873076	 0.0926082342	 0.0197487382	 0.026989
C	 1.097301296	-0.5143283839	-0.9549583472	 0.074655
O	 1.9338259498	 0.3550407452	-1.6901368735	-0.42632
C	 1.7697611941	-1.0912953638	 0.2769218452	-0.029897
C	 2.0969400576	-0.0231422538	 1.2393372822	-0.239827
N	 0.7126129945	-0.5273354246	 1.2198814706	-0.143275
H	 0.7248223395	 2.1618449267	 0.0133362479	 0.129286
H	-0.8069600165	 1.8945034692	-0.8200355577	 0.110673
H	-0.7567799877	 1.8698995804	 0.9487492592	 0.128566
H	-0.924337214	-0.4290551849	-0.0941169259	 0.079718
H	 0.6660013617	-1.2874461978	-1.6024548626	 0.073476
H	 1.4527278781	 0.6497993687	-2.4700581815	 0.284638
H	 2.1403339605	-2.1058790297	 0.3745162303	 0.092567
H	 2.6287123726	-0.3175082111	 2.1387986682	 0.119656
H	 2.3283230522	 0.9748088659	 0.8822109781	 0.127281
155.7193	174.4615	210.6119	276.7885	313.1695	418.5206	552.1041	562.6256	719.76	767.449	772.2869	808.6315	904.8765	954.5152	990.3777	1027.9854	1061.2629	1099.871	1105.2	1120.8218	1155.8887	1177.5317	1196.2133	1239.6128	1282.1431	1310.7197	1368.672	1377.9682	1404.7919	1434.4849	1485.291	1493.7237	1510.9155	3023.4351	3036.7203	3058.51	3098.6888	3124.3844	3130.466	3171.2188	3213.7989	3816.1979
CC1C(O)C2CN12	C[C@H]1[C@@H](O)[C@H]2CN12	
InChI=1S/C5H9NO/c1-3-5(7)4-2-6(3)4/h3-5,7H,2H2,1H3	InChI=1S/C5H9NO/c1-3-5(7)4-2-6(3)4/h3-5,7H,2H2,1H3/t3-,4+,5+,6?/m0/s1
