16
gdb 4834	4.73063	1.40483	1.15552	1.97	68.28	-0.1993	0.0314	0.2307	1042.3758	0.131796	-379.967938	-379.960138	-379.959194	-380.000257	28.646	
C	 0.2395806264	 1.5414373018	-0.0790772622	-0.371192
C	-0.0332644727	 0.0363720807	 0.0904395512	-0.298829
C	 0.5687770542	-0.5462827133	 1.3168316366	 0.330773
C	 0.1085528122	-1.1302412105	 2.4440823703	-0.202158
N	 1.1690682529	-1.4987847653	 3.2746603153	-0.33762
C	 2.213395998	-1.1096937429	 2.6136085382	 0.444809
N	 3.5300642177	-1.1575936344	 3.0052035479	-0.587356
O	 1.9583992809	-0.5259719737	 1.421445294	-0.21981
H	 1.3144331426	 1.7380891841	-0.1235515024	 0.129514
H	-0.2138161731	 1.9155481337	-1.0019749297	 0.112611
H	-0.1712894333	 2.1087141936	 0.7613262881	 0.123572
H	-1.1119283107	-0.1473499039	 0.1363167892	 0.117344
H	 0.3349218375	-0.4990344576	-0.7953056089	 0.113104
H	-0.9158632159	-1.3234112307	 2.7222362013	 0.114182
H	 3.6841949227	-1.8151769151	 3.7555055165	 0.269315
H	 4.1899626506	-1.2563239466	 2.2472687147	 0.261741
71.9888	130.5509	192.5508	258.3461	297.9996	313.8875	402.1229	456.0796	611.4522	617.9978	671.4276	747.294	767.5837	788.491	850.7855	956.6281	981.1585	992.5312	1073.2382	1090.2126	1093.3497	1196.6234	1227.5123	1256.918	1300.7663	1361.1708	1406.3267	1440.5711	1472.4235	1495.8517	1506.8645	1603.7209	1662.4434	1681.2094	3014.9145	3041.4239	3074.5184	3113.351	3120.6537	3257.9488	3571.6028	3679.3255
CCC1=CN=C(N)O1	CCc1cnc(N)o1	
InChI=1S/C5H8N2O/c1-2-4-3-7-5(6)8-4/h3H,2H2,1H3,(H2,6,7)	InChI=1S/C5H8N2O/c1-2-4-3-7-5(6)8-4/h3H,2H2,1H3,(H2,6,7)
