19
gdb 2730	13.82238	0.71797	0.69728	2.6846	64.75	-0.2624	0.0775	0.34	1567.0372	0.170131	-348.046236	-348.036897	-348.035953	-348.080684	31.727	
O	-0.0755294843	 1.4560858151	 0.0104712245	-0.421357
C	 0.023403181	 0.039519311	 0.0019629214	-0.073646
C	-1.3877400223	-0.5321065979	 0.0123864709	-0.16267
C	-1.4126781072	-2.0633971942	 0.0044324518	-0.189536
C	-2.8330237919	-2.6361484589	 0.0149068769	-0.16267
C	-2.8602140339	-4.1584450665	 0.0070095623	-0.073646
O	-4.2179265001	-4.5744066423	 0.0176650645	-0.421357
H	 0.814457937	 1.8198338627	 0.0039378623	 0.284378
H	 0.5622295755	-0.3168903792	-0.8918954347	 0.081668
H	 0.5791626631	-0.3263579271	 0.8815137537	 0.081668
H	-1.9105237966	-0.1509874994	 0.8981192746	 0.105732
H	-1.9273116999	-0.1415860748	-0.8590680782	 0.105733
H	-0.8757301007	-2.4332911028	-0.8804385543	 0.093262
H	-0.8590010695	-2.4426789718	 0.8749025131	 0.093261
H	-3.3753710884	-2.2834879157	 0.9006645832	 0.105731
H	-3.3921235335	-2.2740789192	-0.8565232018	 0.105734
H	-2.3351548156	-4.5349559291	-0.8868016333	 0.081668
H	-2.31832495	-4.5444583545	 0.886607966	 0.081668
H	-4.2380900327	-5.5356576154	 0.0128682871	 0.284378
67.7724	85.5063	102.5573	145.4235	152.1052	261.7143	265.3461	267.9857	305.3884	451.1905	513.1788	745.0193	780.4754	860.0196	983.2367	983.5336	1021.2642	1046.6487	1065.4341	1077.2494	1096.3761	1185.5753	1209.5285	1210.8169	1259.1457	1268.6911	1298.8933	1309.5926	1323.3851	1328.6491	1349.2494	1401.1979	1462.0444	1466.2683	1489.0233	1494.0429	1508.2983	1528.4505	1531.4432	2954.8542	2955.0637	2979.0863	2979.4593	3003.2734	3029.0845	3029.5897	3035.2908	3069.9413	3081.6397	3829.8398	3829.8587
OCCCCCO	OCCCCCO	
InChI=1S/C5H12O2/c6-4-2-1-3-5-7/h6-7H,1-5H2	InChI=1S/C5H12O2/c6-4-2-1-3-5-7/h6-7H,1-5H2
