12
gdb 3782	8.12202	2.03395	1.64716	5.3308	54.6	-0.2211	-0.0114	0.2097	709.3096	0.089811	-356.669324	-356.662567	-356.661623	-356.700111	23.263	
C	-0.0425152047	 1.4735897607	 0.0683580331	-0.331137
N	 0.1042797403	 0.0288297093	-0.0195985094	-0.378431
C	 0.6368987658	-0.7000081809	 0.9897956796	 0.504246
C	 0.6833541848	-2.0698464895	 1.1976623616	-0.242749
N	 1.3839116987	-2.255778628	 2.346647392	-0.072624
N	 1.7710411477	-1.2026993185	 2.8769163224	-0.047521
O	 1.2666769464	-0.0785704553	 1.9620396741	-0.248575
H	 0.9102260977	 1.9200984823	 0.3594028312	 0.16355
H	-0.320660084	 1.8562934071	-0.9154609625	 0.13473
H	-0.8034183495	 1.7798124442	 0.7980254247	 0.136701
H	-0.5304498936	-0.4638867201	-0.6257286443	 0.260725
H	 0.2821504603	-2.8816691313	 0.6173917174	 0.121086
105.0781	125.837	185.312	293.6474	354.875	414.4713	528.6702	659.8437	710.6257	727.6314	746.2474	951.2761	1011.928	1103.0526	1145.5402	1152.1622	1178.0038	1327.0315	1379.3969	1451.0193	1486.3398	1502.8006	1506.8523	1521.0586	1643.5252	3020.397	3104.7101	3144.884	3291.3079	3649.0005
CNC1=CN=NO1	CNc1cnno1	
InChI=1S/C3H5N3O/c1-4-3-2-5-6-7-3/h2,4H,1H3	InChI=1S/C3H5N3O/c1-4-3-2-5-6-7-3/h2,4H,1H3
