10
gdb 3887	7.67226	2.24242	1.74071	6.0949	44.85	-0.2424	0.0181	0.2605	642.7924	0.068342	-392.653825	-392.648066	-392.647122	-392.683213	21.136	
N	 0.072354694	 1.3915396479	 0.1583570194	-0.587982
C	-0.0065052597	 0.0246686255	 0.0215393317	 0.478401
N	-1.1109585344	-0.6506651736	-0.0305394978	-0.203566
O	-0.6939036027	-2.0188243548	-0.0455118746	-0.231216
C	 0.6661042251	-2.1039745791	-0.0244923993	 0.516524
O	 1.3109500019	-3.1119668801	-0.0235770246	-0.389616
N	 1.1019821448	-0.7796165301	-0.0068548088	-0.414042
H	 0.734172369	 1.8381049897	-0.4638373349	 0.266541
H	-0.84098771	 1.8244836297	 0.0988155317	 0.278203
H	 2.057370142	-0.5148343952	 0.1597076271	 0.286752
172.9202	298.742	342.7559	365.1148	430.2782	544.8014	650.3514	661.4774	737.2869	770.1325	782.061	924.002	978.9087	1036.1824	1144.401	1214.7856	1301.6502	1547.5909	1628.2972	1697.1374	1906.4363	3541.1891	3637.533	3684.8008
NC1=NOC(=O)N1	Nc1noc(=O)[nH]1	
InChI=1S/C2H3N3O2/c3-1-4-2(6)7-5-1/h(H3,3,4,5,6)	InChI=1S/C2H3N3O2/c3-1-4-2(6)7-5-1/h(H3,3,4,5,6)
