12
gdb 3118	6.27785	2.16128	1.86026	2.8514	55.57	-0.2656	0.0062	0.2717	662.3342	0.090796	-323.341413	-323.335616	-323.334672	-323.370971	21.405	
N	 0.0441513856	-1.1786316666	-0.0480694093	-0.345641
C	 0.0260410989	-0.0211328137	-0.0219766752	 0.198786
C	-0.0052860192	 1.3986001086	 0.0188493665	 0.122571
C	 0.281019238	 2.291268417	-1.1856616169	-0.331272
C	 1.1183332071	 2.4418267219	 0.0340742147	 0.074372
O	 0.4694526988	 3.2297864383	 1.0201337283	-0.271705
C	-0.6013943713	 2.2568335842	 1.1401867254	-0.12521
H	 0.7465930681	 1.7719080363	-2.0164943725	 0.146895
H	-0.4297183222	 3.0684961105	-1.4509280157	 0.135204
H	 2.194435231	 2.328226698	 0.086635001	 0.135389
H	-1.5900763469	 2.6929334331	 0.9641678911	 0.124605
H	-0.5666552478	 1.7661264223	 2.1169867427	 0.136007
169.7428	178.1372	323.8898	442.7698	509.8413	557.4444	586.6075	757.9428	827.893	892.692	934.4335	985.9446	1000.0811	1030.0392	1063.9201	1092.5821	1098.2677	1159.5471	1215.3422	1292.5438	1307.5796	1394.7713	1472.4774	1515.2525	2347.0114	3044.7638	3104.6565	3125.4237	3196.9502	3226.1851
N#CC12CC1OC2	N#C[C@]12C[C@H]1OC2	
InChI=1S/C5H5NO/c6-2-5-1-4(5)7-3-5/h4H,1,3H2	InChI=1S/C5H5NO/c6-2-5-1-4(5)7-3-5/h4H,1,3H2/t4-,5+/m1/s1
