14
gdb 4895	4.88603	1.40633	1.15634	2.3042	61.89	-0.1979	0.0181	0.216	988.6318	0.107651	-415.874081	-415.866422	-415.865478	-415.90643	27.598	
O	 0.0167817223	 1.4687606568	 0.0130433798	-0.409384
C	 0.0024426874	 0.0474573496	 0.0704339561	-0.18287
C	-1.3551663332	-0.5321408524	-0.0763051346	 0.326688
C	-1.9713438446	-1.2640084292	-1.0118716102	-0.189794
N	-3.2747745279	-1.4777548337	-0.5750919254	-0.329246
C	-3.46859992	-0.8649038464	 0.6450824279	 0.463489
N	-4.5349509524	-0.8568434541	 1.3279243767	-0.603121
O	-2.2580262693	-0.2713102604	 0.9557712397	-0.259114
H	-0.5622515063	 1.788625377	 0.7131700596	 0.292859
H	 0.6265801072	-0.3042896059	-0.7557571879	 0.126188
H	 0.4580127513	-0.3091063888	 1.0077805774	 0.107777
H	-1.6025654104	-1.6495810274	-1.946691644	 0.154078
H	-3.9940992794	-2.0097770491	-1.0292814887	 0.277864
H	-4.4086410848	-0.337818906	 2.1921007536	 0.224586
77.1615	119.9556	150.8079	252.8639	331.3646	339.4935	440.0994	477.1685	599.8373	687.0803	711.6462	740.7795	769.909	789.4417	919.6258	956.9297	989.7781	1035.7131	1051.0506	1092.7892	1182.6461	1236.2523	1274.9742	1367.8144	1378.9412	1408.6304	1423.1007	1486.1769	1724.8096	1795.2008	2981.0464	3096.6899	3289.4837	3547.5595	3711.1064	3815.2511
OCC1=CNC(=N)O1	OCC1=CN[C@@H]([NH])O1	
InChI=1S/C4H6N2O2/c5-4-6-1-3(2-7)8-4/h1,7H,2H2,(H2,5,6)	InChI=1S/C4H7N2O2/c5-4-6-1-3(2-7)8-4/h1,4-7H,2H2/t4-/m1/s1
