15
gdb 2898	6.54071	1.85036	1.48882	3.4213	65.7	-0.2473	-0.0529	0.1944	802.2208	0.126018	-308.551121	-308.544577	-308.543633	-308.581771	23.694	
O	-0.0803635305	-0.0128035025	-0.0070695788	-0.270728
C	-0.0008987128	 1.1964173802	 0.0159805976	 0.064677
C	 1.2596093894	 1.9395926672	 0.0395613254	 0.257111
C	 1.3478744631	 3.2780322422	 0.0278714673	-0.140965
C	 2.7757488842	 3.7527630509	 0.0153139582	-0.252229
C	 3.5789631534	 2.4665888311	 0.3511064417	-0.214813
C	 2.6237242218	 1.2856016095	 0.0359403755	-0.306665
H	-0.9147054355	 1.8328399608	 0.0231581075	 0.064095
H	 0.4960255474	 3.9504972521	-0.0041819842	 0.107072
H	 3.027777394	 4.1513235744	-0.9783608546	 0.120234
H	 2.9578121875	 4.569861121	 0.7222289977	 0.114679
H	 4.5225526663	 2.4057792857	-0.195686022	 0.104859
H	 3.8237883647	 2.4635814469	 1.4176872722	 0.111663
H	 2.6944526411	 0.4687439342	 0.7594687331	 0.123023
H	 2.8244832159	 0.8407901462	-0.9471145665	 0.117986
114.5113	134.7957	195.871	291.4564	438.526	481.703	634.3572	720.5023	806.4365	841.0673	877.7871	901.0074	916.2415	964.3178	1030.092	1035.8621	1068.6798	1149.2894	1176.713	1225.7845	1253.2251	1280.2702	1320.1141	1328.5744	1375.0233	1421.1662	1474.7401	1485.0941	1504.349	1680.8935	1782.9439	2872.977	3005.4905	3030.4928	3051.1895	3063.8967	3087.0178	3108.8746	3184.1344
O=CC1=CCCC1	O=CC1=CCCC1	
InChI=1S/C6H8O/c7-5-6-3-1-2-4-6/h3,5H,1-2,4H2	InChI=1S/C6H8O/c7-5-6-3-1-2-4-6/h3,5H,1-2,4H2
