10
gdb 3816	9.51511	1.94715	1.61638	4.6749	54.69	-0.2677	-0.0244	0.2433	680.2682	0.070251	-318.393987	-318.388668	-318.387723	-318.423148	19.092	
N	 0.0258592424	-1.1768249362	-0.0042486885	-0.338661
C	-0.003977776	-0.0191119912	 0.0025382883	 0.197434
C	-0.0276473188	 1.3952201874	 0.0107446919	 0.109499
C	-1.1440484211	 2.2188983787	 0.0301466557	-0.1159
N	-0.6726709678	 3.4797190688	 0.0307422827	-0.169112
N	 0.6751641127	 3.5539836061	 0.0134565587	-0.203149
C	 1.0746200461	 2.2928174969	 0.0014514795	-0.078849
H	-2.1967944166	 1.9884696558	 0.042758214	 0.16618
H	-1.2058781224	 4.3335731111	 0.0424012282	 0.290578
H	 2.1255430714	 2.0485033326	-0.0136358104	 0.141982
174.9538	181.2526	517.7522	559.0712	569.694	573.7693	664.9671	694.3027	817.2649	899.8864	948.6581	1008.0351	1063.0967	1172.0994	1229.3809	1327.2038	1365.8539	1417.125	1496.4418	1592.4695	2351.6681	3265.0588	3277.2039	3669.5442
N#CC1=CNN=C1	N#Cc1c[nH]nc1	
InChI=1S/C4H3N3/c5-1-4-2-6-7-3-4/h2-3H,(H,6,7)	InChI=1S/C4H3N3/c5-1-4-2-6-7-3-4/h2-3H,(H,6,7)
