13
gdb 2455	5.63966	2.52408	2.04049	2.9125	52.91	-0.249	-0.0218	0.2272	626.3895	0.10212	-344.466563	-344.460884	-344.45994	-344.49621	21.457	
O	-0.0019088663	 0.0198088897	-0.2675520287	-0.295341
C	-0.0132076371	 1.1804944379	 0.0393428567	 0.393127
C	-1.2793732939	 2.0284252183	 0.2722997839	-0.346906
C	-0.7683760631	 3.3166445101	 0.8692972769	 0.044065
O	-0.0117197942	 3.1100803081	 2.0687502086	-0.256548
C	 0.7069256916	 3.3362113689	 0.8496112276	 0.044064
C	 1.2357936817	 2.0617822819	 0.2387407925	-0.346905
H	-1.7819138717	 2.1949438087	-0.6888220333	 0.132284
H	-1.9782378002	 1.492997097	 0.9208825378	 0.146527
H	-1.3642785981	 4.2246726233	 0.8414329443	 0.103411
H	 1.2775851793	 4.2597116088	 0.8061807333	 0.103411
H	 1.9656579272	 1.5453029754	 0.8682660707	 0.146527
H	 1.7079298445	 2.241223322	-0.7353836303	 0.132284
84.6282	319.3991	379.5663	462.9204	480.4393	641.5837	671.6062	770.5974	788.9118	843.7927	856.5619	916.466	984.5994	1032.2805	1071.0569	1077.1406	1129.6108	1164.3359	1208.8309	1257.9648	1278.6814	1285.8313	1347.0187	1428.9033	1436.7657	1446.2914	1857.0833	3042.9968	3045.5388	3102.167	3102.3549	3148.9888	3160.6403
O=C1CC2OC2C1	O=C1C[C@H]2O[C@H]2C1	
InChI=1S/C5H6O2/c6-3-1-4-5(2-3)7-4/h4-5H,1-2H2	InChI=1S/C5H6O2/c6-3-1-4-5(2-3)7-4/h4-5H,1-2H2/t4-,5+
