15
gdb 4868	4.71463	1.39305	1.11838	2.8094	64.83	-0.1965	0.0291	0.2257	1025.0722	0.120988	-396.008264	-396.000491	-395.999547	-396.040681	28.327	
N	 0.17760767	 1.3966684343	 0.0323464691	-0.611377
C	 0.0277641742	 0.0013302231	-0.0071877658	 0.275566
C	-1.0221444959	-0.8543219514	 0.2206966154	-0.159907
N	-0.5976843976	-2.1661650545	 0.1635379612	-0.296575
C	 0.6831067319	-2.1137532954	-0.1162052232	 0.290504
C	 1.6102955046	-3.2656004269	-0.3306097983	-0.17431
O	 2.8803603831	-3.0553764009	 0.2845757201	-0.42094
N	 1.1145495599	-0.8156250066	-0.2269277807	-0.294896
H	 0.3663486067	 1.7968717435	-0.8820858925	 0.247227
H	-0.6577266853	 1.8357503118	 0.3988154624	 0.251895
H	-2.0500142832	-0.5985858021	 0.4303407182	 0.094419
H	 1.1102586083	-4.1768625303	 0.0200583063	 0.123175
H	 1.835203504	-3.4005755102	-1.3955029743	 0.121647
H	 2.7313344565	-2.9969444858	 1.2346883825	 0.286355
H	 2.0733788127	-0.5222733386	-0.3190286204	 0.267218
64.6725	142.0841	176.7197	222.9209	322.1236	376.3133	388.7591	477.7776	556.6793	647.0802	664.9388	699.3148	764.0921	800.3697	821.8289	969.2978	1006.1734	1034.2917	1063.5199	1136.7501	1171.9395	1193.1538	1217.7858	1294.7866	1357.5591	1412.1041	1441.4429	1454.9893	1496.5912	1552.8042	1623.9384	1658.4354	3025.7185	3065.183	3242.8323	3496.078	3602.382	3660.3295	3803.897
NC1=CN=C(CO)N1	Nc1cnc(CO)[nH]1	
InChI=1S/C4H7N3O/c5-3-1-6-4(2-8)7-3/h1,8H,2,5H2,(H,6,7)	InChI=1S/C4H7N3O/c5-3-1-6-4(2-8)7-3/h1,8H,2,5H2,(H,6,7)
