17
gdb 3357	4.38181	2.97524	2.27355	1.4217	62.57	-0.241	0.0792	0.3202	648.3037	0.151034	-309.71603	-309.710056	-309.709112	-309.74596	23.288	
C	-0.0562402071	 1.5003893555	-0.2365501857	-0.232905
C	 1.3981830829	 1.5833511358	 0.310662141	-0.239295
C	 1.386375406	 0.0486195474	 0.5759672232	 0.123112
O	 1.340437943	-0.349077203	 1.934482484	-0.255802
C	 0.0026174172	-0.1931461436	 2.39563968	-0.086678
C	-0.8890600635	-0.5488915252	 1.1941307467	-0.228885
C	-0.0669671512	-0.0395235279	 0.0036594999	-0.025873
H	-0.8010048992	 2.053278213	 0.3439120805	 0.095281
H	-0.164436783	 1.7898913234	-1.2842048989	 0.100732
H	 2.1423562255	 1.9002112125	-0.4242418266	 0.099204
H	 1.5332289064	 2.1800236872	 1.2161286954	 0.106252
H	 2.1812089484	-0.5246367076	 0.0934965488	 0.074385
H	-0.1318593551	-0.8505821652	 3.2586722859	 0.10815
H	-0.180452042	 0.8418375204	 2.7265194964	 0.089786
H	-1.0125118518	-1.634640933	 1.1308005929	 0.105156
H	-1.8825539475	-0.0953795409	 1.2578755126	 0.09918
H	-0.2060376591	-0.642875979	-0.8945436561	 0.068199
77.5075	217.0256	342.0377	411.153	598.8721	649.757	730.0988	747.9054	829.662	846.6211	895.2164	904.741	950.0133	961.8348	976.9406	991.671	1048.3843	1073.2117	1131.9802	1149.5855	1192.1513	1214.1413	1224.4575	1242.7389	1257.7683	1274.2711	1278.7258	1312.2614	1331.8832	1355.5649	1392.866	1467.6807	1479.8333	1489.9089	1521.3898	2974.9382	3048.6229	3052.1678	3062.2952	3079.2713	3088.8894	3093.9348	3099.	3105.2191	3121.9935
C1CC2OCCC12	C1C[C@H]2OCC[C@@H]12	
InChI=1S/C6H10O/c1-2-6-5(1)3-4-7-6/h5-6H,1-4H2	InChI=1S/C6H10O/c1-2-6-5(1)3-4-7-6/h5-6H,1-4H2/t5-,6-/m1/s1
