14
gdb 4584	5.89562	1.57764	1.24766	1.9724	70.54	-0.1916	-0.0304	0.1612	915.9922	0.110257	-374.959663	-374.952781	-374.951837	-374.9903	26.86	
N	-0.0056259725	 1.3929552115	 0.1204845317	-0.573431
C	-0.0072335842	 0.0031672687	 0.0464298036	 0.338545
C	-1.1921826629	-0.7459647509	 0.0480952063	-0.068071
N	-1.192337824	-2.0742963273	 0.031245004	-0.29476
C	-0.0066046551	-2.6920151723	 0.0322741326	 0.338554
N	-0.0074183527	-4.0824985932	 0.0917302206	-0.573431
C	 1.1783268243	-1.9428668828	 0.0276271034	-0.068076
N	 1.178361704	-0.6144319783	 0.0247272088	-0.294755
H	 0.8776462376	 1.7933923683	-0.1634708807	 0.251132
H	-0.7951114948	 1.850366678	-0.311293719	 0.247629
H	-2.1625578884	-0.2534585903	 0.0561319802	 0.098951
H	-0.8940262339	-4.4800048761	-0.1858706196	 0.251134
H	 0.7768644859	-4.535308929	-0.3541449021	 0.24763
H	 2.1486982367	-2.4353682161	 0.0188709201	 0.09895
126.662	299.3303	312.6447	331.2447	380.6254	431.6611	434.7467	523.2917	542.3629	599.2455	664.592	669.2342	793.2046	817.4796	896.0564	908.2163	933.3016	1036.2451	1063.6453	1121.5939	1269.9969	1322.7222	1336.7837	1363.4676	1442.1663	1529.2606	1590.7643	1627.3484	1637.8867	1651.7876	3140.254	3144.3999	3560.203	3560.5654	3667.1714	3667.2861
NC1=CN=C(N)C=N1	Nc1cnc(N)cn1	
InChI=1S/C4H6N4/c5-3-1-7-4(6)2-8-3/h1-2H,(H2,6,7)(H2,5,8)	InChI=1S/C4H6N4/c5-3-1-7-4(6)2-8-3/h1-2H,(H2,6,7)(H2,5,8)
