17
gdb 2298	7.60321	1.33907	1.24869	2.0907	61.01	-0.2439	0.0828	0.3267	979.4096	0.147771	-346.815715	-346.80792	-346.806976	-346.848672	26.379	
C	-0.1251848069	 1.3734391745	-0.1119252109	-0.227291
O	-0.0827332316	-0.0334077431	-0.0875214117	-0.234244
C	 0.7587959371	-0.5777030477	-1.079657819	-0.066065
C	 0.702779549	-2.0883333145	-0.9746121696	-0.043835
C	-0.6080871788	-2.7417185296	-1.4611401376	-0.070016
O	 0.0558315185	-3.3272402759	-2.6031158983	-0.272566
C	 1.3410256615	-2.8560434423	-2.1525324777	-0.090052
H	 0.8689859413	 1.8151107326	 0.0617679911	 0.104276
H	-0.5051681036	 1.7545614341	-1.0730818085	 0.105442
H	-0.7983172244	 1.6950014785	 0.6864145506	 0.128649
H	 0.4309989302	-0.2567229494	-2.0846750273	 0.090077
H	 1.7961067461	-0.2212701948	-0.9489202141	 0.085474
H	 1.0296350352	-2.4006539564	 0.0192445221	 0.086779
H	-1.0264551786	-3.5067893177	-0.7953867021	 0.099631
H	-1.4058908656	-2.0485785854	-1.7531027975	 0.106438
H	 1.8455370233	-2.2425530625	-2.9110892489	 0.098018
H	 2.0061453571	-3.6813303102	-1.8676078007	 0.099284
53.6006	93.9227	106.1843	173.4715	235.7425	335.9937	389.1866	465.0431	801.1834	873.0739	885.2373	921.7082	963.3571	993.9789	1037.6631	1070.8112	1112.986	1150.0493	1157.5944	1160.6929	1178.5194	1204.3453	1228.7931	1250.3678	1279.4754	1308.2433	1348.058	1388.8671	1426.4434	1481.7019	1486.4164	1502.672	1511.218	1525.968	1539.0899	2938.5347	2966.5957	2971.0633	3001.5215	3014.2682	3018.5731	3042.3141	3060.275	3094.0049	3114.9797
COCC1COC1	COCC1COC1	
InChI=1S/C5H10O2/c1-6-2-5-3-7-4-5/h5H,2-4H2,1H3	InChI=1S/C5H10O2/c1-6-2-5-3-7-4-5/h5H,2-4H2,1H3
