11
gdb 209	8.97547	3.51643	2.52657	1.6811	47.51	-0.1864	0.05	0.2364	480.4033	0.086407	-285.316421	-285.311084	-285.31014	-285.344731	19.995	
O	 0.1081683513	 1.3812088181	-0.112078899	-0.448596
C	 0.0694617186	 0.0172485259	-0.0363892442	 0.319659
C	-0.007032459	-0.8110697596	-1.1326025537	-0.172937
N	-0.0250442353	-2.1057781548	-0.654887956	-0.226555
C	 0.0384125677	-2.1062444106	 0.7080150434	-0.063351
C	 0.0985138062	-0.7952589388	 1.1313550662	-0.281475
H	 0.1598633143	 1.7307679837	 0.7816777498	 0.294604
H	-0.0489432265	-0.586834977	-2.1843858265	 0.115736
H	-0.0769769411	-2.9257661194	-1.2313251281	 0.26145
H	 0.0360022967	-3.0268571	 1.2685551287	 0.116604
H	 0.156470307	-0.4569876876	 2.1553224395	 0.084862
204.9822	313.2771	401.0965	417.0932	622.0498	629.448	666.6938	672.5461	743.006	786.4598	895.5528	983.2348	1077.7543	1089.7978	1168.3377	1177.8761	1315.9419	1326.2541	1443.7976	1481.9336	1525.1689	1650.2819	3236.6688	3269.5485	3282.6969	3699.2864	3847.5905
OC1=CNC=C1	Oc1c[nH]cc1	
InChI=1S/C4H5NO/c6-4-1-2-5-3-4/h1-3,5-6H	InChI=1S/C4H5NO/c6-4-1-2-5-3-4/h1-3,5-6H
