13
gdb 4617	5.59783	1.5842	1.23476	3.5657	66.11	-0.2023	-0.0477	0.1547	899.8678	0.096478	-398.62284	-398.616217	-398.615273	-398.653502	25.471	
O	-0.0607854633	 1.3816890836	 0.0106463405	-0.435383
C	 0.0375675237	 0.0197383497	 0.0028173161	 0.251228
C	 1.1887453999	-0.6774055129	-0.0079088597	-0.062958
O	 1.2236380273	-2.039600051	-0.0153489951	-0.237881
C	 0.0618426404	-2.8039804828	-0.0123217841	 0.389039
N	 0.1175962949	-4.074836634	-0.0194413611	-0.542037
C	-1.1846392318	-2.0591942115	-0.000774375	-0.14635
C	-1.2026048146	-0.7125124622	 0.006491269	-0.113699
H	 0.8207402805	 1.769931482	 0.0073671248	 0.30123
H	 2.1829490033	-0.2469477201	-0.0116908008	 0.119626
H	 1.0871489756	-4.3924612392	-0.0270462075	 0.219166
H	-2.0885732106	-2.6539684155	 0.0015723743	 0.131381
H	-2.1295677353	-0.1498629762	 0.0151327586	 0.126638
104.9185	299.9248	327.9056	348.2573	365.3736	438.5067	483.3633	511.0359	632.0454	721.0202	777.8628	803.6337	809.9332	831.576	859.4837	959.1843	1003.9372	1052.6612	1163.1638	1186.3056	1201.0431	1290.4286	1312.8961	1392.3693	1486.3551	1615.0497	1689.3674	1740.8518	3198.403	3203.8172	3229.7567	3489.4695	3819.1942
OC1=COC(=N)C=C1	OC1=COC(=CC1)[NH]	
InChI=1S/C5H5NO2/c6-5-2-1-4(7)3-8-5/h1-3,6-7H	InChI=1S/C5H6NO2/c6-5-2-1-4(7)3-8-5/h2-3,6-7H,1H2
