16
gdb 1102	3.31871	2.42975	2.02271	5.0399	56.21	-0.2472	0.0241	0.2713	729.6326	0.13588	-362.957353	-362.949399	-362.948455	-362.989148	29.265	
C	 0.0170602601	 1.5852961352	 0.0111701145	-0.415568
C	-0.0486668326	 0.0537523818	 0.0580663591	 0.115154
C	 0.6772319802	-0.4900357495	 1.2999327927	-0.411994
N	-1.4337677965	-0.4706013344	 0.047859669	-0.558312
H	-2.0631719307	 0.1836181576	-0.4074706512	 0.242162
H	-0.7850079401	-1.6343507965	-1.2519057992	 0.304854
H	-1.7785811223	-0.6088116694	 0.9915426506	 0.241371
C	 0.6908571353	-0.5266369302	-1.179719834	 0.437364
O	 1.7558388345	-0.1129598684	-1.556487307	-0.354676
O	 0.0548118613	-1.5501945911	-1.7594930976	-0.375585
H	 1.051936888	 1.9154527526	-0.0952421119	 0.153118
H	-0.5441030039	 1.9746605918	-0.8457040346	 0.117418
H	-0.4055673143	 2.0151471628	 0.9249849037	 0.10817
H	 0.2476480127	-0.0596929357	 2.2115389517	 0.113823
H	 0.5925924624	-1.5799324033	 1.3553949046	 0.12975
H	 1.7364259661	-0.2291079533	 1.2579882696	 0.152951
60.2757	221.7749	250.4906	260.6573	282.6138	293.899	345.9134	383.2638	411.9687	546.9448	581.2155	753.5818	767.1074	836.1083	888.438	933.9488	947.5561	981.3748	1024.745	1079.6033	1179.7598	1231.215	1259.563	1319.291	1392.9631	1412.1976	1430.7928	1478.2299	1489.807	1498.4868	1511.9904	1654.2276	1861.0881	3032.0351	3035.6953	3098.3193	3102.7209	3137.26	3142.0525	3437.8542	3502.9197	3584.5356
CC(C)([NH3+])C([O-])=O	CC(C)(N)C(=O)O	
InChI=1S/C4H9NO2/c1-4(2,5)3(6)7/h5H2,1-2H3,(H,6,7)	InChI=1S/C4H9NO2/c1-4(2,5)3(6)7/h5H2,1-2H3,(H,6,7)
