11
gdb 1937	8.16794	1.69622	1.6012	2.7802	53.21	-0.2928	-0.016	0.2768	736.5782	0.078945	-339.438949	-339.432887	-339.431943	-339.46916	21.428	
N	 0.0398713013	 1.1056539961	 0.5301277634	-0.521844
C	-0.0324439623	-0.0297269036	 0.0177582615	 0.451862
C	-1.1509118109	-1.0122515857	-0.2612012332	-0.368762
C	-0.0144504805	-1.8713726058	-0.8750284352	-0.012049
O	 0.9586368056	-0.8441120283	-0.5236465721	-0.246201
C	 0.2698364247	-3.1513772721	-0.2331074269	 0.284904
N	 0.4744561859	-4.1733639176	 0.2648375936	-0.302103
H	 0.9965729219	 1.4626226975	 0.5438989139	 0.242448
H	-1.6292344196	-1.4298549187	 0.6246407291	 0.167011
H	-1.9060314515	-0.6686425523	-0.968364613	 0.157184
H	-0.0608852145	-2.0028953994	-1.9591547512	 0.14755
85.7198	185.5186	262.8859	432.28	488.4172	514.994	569.0351	730.2587	795.6813	867.8581	946.6598	953.7165	997.8147	1022.3865	1059.6033	1129.4984	1205.3851	1236.5254	1292.4223	1363.6459	1462.7864	1846.8493	2364.8009	3085.7075	3102.9926	3163.3953	3485.9058
N=C1CC(O1)C#N	[NH][C]1C[C@@H](O1)C#N	
InChI=1S/C4H4N2O/c5-2-3-1-4(6)7-3/h3,6H,1H2	InChI=1S/C4H4N2O/c5-2-3-1-4(6)7-3/h3,6H,1H2/t3-/m1/s1
