12
gdb 2407	6.86137	2.15424	2.04023	1.4526	51.04	-0.249	-0.0145	0.2345	628.2319	0.090997	-360.446475	-360.440915	-360.439971	-360.475677	21.34	
O	 0.1432398534	 1.3990608282	-0.0992995118	-0.446037
C	 0.0754605175	 0.0160198674	-0.0690851093	 0.224049
C	 0.0523017627	-0.6883403354	 1.3330925015	-0.210428
N	-1.358857826	-0.097233708	 1.4604429572	-0.352287
C	-1.3429334246	-0.6484816089	 0.0276582793	-0.210428
C	-0.6419406391	-1.8755084798	 0.6399109694	 0.448742
O	-0.7318225333	-3.0622138837	 0.6997424153	-0.318315
H	-0.4790255716	 1.7089938319	 0.5752362163	 0.297473
H	 0.7614986575	-0.3856264065	-0.8145797494	 0.110523
H	 0.7745679409	-0.6369872299	 2.1449731815	 0.108128
H	-1.9495325317	-0.6627602532	 2.0744828076	 0.240451
H	-2.1987489855	-0.552043182	-0.6369733375	 0.108129
170.1723	302.2002	330.6198	502.2274	556.6411	564.6643	715.0885	719.9754	782.8589	794.1925	842.2358	925.1862	995.689	1037.1627	1098.3754	1118.9207	1130.5727	1166.2071	1185.1946	1192.29	1245.384	1261.6464	1333.0768	1456.4105	1913.2722	3128.8623	3150.6544	3154.7957	3432.5906	3735.8713
OC1C2NC1C2=O	O[C@H]1[C@H]2N[C@@H]1C2=O	
InChI=1S/C4H5NO2/c6-3-1-4(7)2(3)5-1/h1-3,5-6H	InChI=1S/C4H5NO2/c6-3-1-4(7)2(3)5-1/h1-3,5-6H/t1-,2+,3+
