17
gdb 4071	4.59144	1.06393	0.99145	1.9976	68.25	-0.2421	0.0128	0.255	1204.5242	0.13956	-400.936401	-400.927445	-400.926501	-400.971353	31.217	
C	 0.0827250888	 1.5268416852	-0.0973827532	-0.476953
C	-0.0160362999	 0.029620337	 0.0235371504	 0.373791
C	-0.092888904	-0.6121018276	 1.3873579296	-0.318292
C	 1.1148698592	-0.3158532843	 2.2542024491	 0.100992
C	 1.6407035212	-1.2979181179	 3.2094973288	-0.179395
O	 2.3056051038	-1.0493127284	 1.9699095861	-0.224852
N	-0.04518697	-0.7730048552	-0.9705311782	-0.158982
O	 0.0380837867	-0.0918778943	-2.1958087163	-0.399412
H	 1.1134676365	 1.8294075099	-0.3157689907	 0.15168
H	-0.5342064383	 1.8820437307	-0.9259054998	 0.151333
H	-0.2279785237	 2.021951708	 0.825960634	 0.11623
H	-0.9865715562	-0.2412438298	 1.9106092404	 0.109345
H	-0.1965503344	-1.6923918194	 1.2606049636	 0.124247
H	 1.2913831587	 0.739284532	 2.4713739423	 0.092922
H	 2.1672908053	-0.9617268104	 4.1017606223	 0.1149
H	 1.1598587947	-2.271849188	 3.2940932699	 0.116
H	-0.0184300883	-0.8141245974	-2.8299866184	 0.306446
38.0248	64.9129	74.1061	144.0407	292.7095	308.2601	340.3299	386.805	398.4944	462.3156	537.4679	654.2426	788.0919	816.6013	869.6564	930.9868	954.1219	985.2215	1025.1491	1046.4313	1096.0945	1116.1614	1158.9734	1168.8452	1229.7748	1273.3872	1296.8893	1320.8264	1397.6976	1400.5423	1445.6884	1455.7659	1476.1011	1487.5079	1530.504	1732.204	3006.7401	3040.6282	3080.6654	3090.2749	3102.4168	3110.6516	3133.9372	3167.5089	3822.17
CC(CC1CO1)=NO	CC(=NO)C[C@H]1CO1	
InChI=1S/C5H9NO2/c1-4(6-7)2-5-3-8-5/h5,7H,2-3H2,1H3	InChI=1S/C5H9NO2/c1-4(6-7)2-5-3-8-5/h5,7H,2-3H2,1H3/t5-/m0/s1
