13
gdb 1642	4.97294	2.02486	1.45221	8.8749	52.78	-0.2307	-0.0335	0.1972	791.4402	0.101413	-377.816466	-377.808827	-377.807883	-377.84901	25.863	
C	 0.134802023	 1.5262507115	 0.0106248472	-0.34933
N	-0.0605906532	 0.0900457703	 0.0026961311	-0.251872
H	 0.7084563279	-0.5871797499	-0.0100867843	 0.285992
C	-1.1957783847	-0.5576324916	 0.0100243201	 0.3015
N	-2.407051273	-0.0512214661	 0.0263182181	-0.497726
C	-1.0978650227	-2.1366387389	-0.0018958609	 0.4044
O	 0.0773430027	-2.524517295	-0.0171458589	-0.464147
O	-2.2124713946	-2.6710308213	 0.0057884513	-0.45954
H	 1.2037373164	 1.740378031	 0.0010911178	 0.164183
H	-0.3177976401	 1.9903046653	-0.8732957703	 0.148752
H	-0.2994104097	 1.9779935666	 0.9100072804	 0.148738
H	-2.6446697029	 0.9269481342	 0.035815191	 0.272731
H	-3.1137767591	-0.7879591561	 0.0286802374	 0.296319
41.1689	117.7157	162.5132	182.4898	278.5159	389.5413	403.2819	525.3779	552.2748	694.4903	778.5481	796.4097	813.3137	832.9731	971.0322	1150.7782	1157.3503	1193.8965	1265.3672	1313.9453	1450.2998	1479.2862	1489.6143	1506.18	1591.9882	1756.6607	1840.329	3026.6625	3083.3015	3149.5778	3403.665	3446.3038	3670.5213
C[NH+]=C(N)C([O-])=O	CNC(=[NH2])C(=O)[O]	
InChI=1S/C3H6N2O2/c1-5-2(4)3(6)7/h1H3,(H2,4,5)(H,6,7)	InChI=1S/C3H6N2O2/c1-5-2(4)3(6)7/h5H,4H2,1H3
