15
gdb 4345	3.93364	1.81201	1.25014	1.5092	70.79	-0.2306	-0.0147	0.2159	932.8135	0.120752	-362.744169	-362.737136	-362.736192	-362.775979	26.321	
C	-0.067798014	 1.5300910169	-0.0150540203	-0.493225
C	 0.0013229789	 0.0254160111	 0.0122558199	 0.337191
C	 0.077195231	-0.7145019409	-1.1788435511	-0.209537
C	 0.1389401046	-2.0950644671	-1.1062398835	 0.003382
N	 0.1309135186	-2.7821320601	 0.0449478668	-0.372545
C	 0.0590444745	-2.0744267503	 1.1642348756	 0.448865
O	 0.0503560964	-2.7571030216	 2.3292537816	-0.41882
C	-0.0075725363	-0.6768489293	 1.2086636369	-0.29866
H	 0.8115002493	 1.9535187555	-0.5127657686	 0.138449
H	-0.9462685017	 1.8716443993	-0.5734549346	 0.138456
H	-0.1220863684	 1.9481468915	 0.9929049723	 0.128957
H	 0.0875308132	-0.2166221932	-2.1421667601	 0.089767
H	 0.1982984278	-2.6927259162	-2.0124474953	 0.108669
H	 0.1023799364	-3.6918426922	 2.0850148289	 0.296118
H	-0.0642846503	-0.1739006434	 2.1668611315	 0.102934
42.6573	202.1156	224.8287	296.2027	450.3175	463.0136	521.3764	533.603	576.0787	616.7608	774.2096	776.7595	836.3409	892.4911	963.5226	980.7165	1001.9537	1027.398	1061.0126	1125.8564	1179.664	1216.7654	1313.8403	1334.9293	1363.3089	1410.0499	1473.161	1482.3458	1502.1458	1524.096	1614.0706	1660.9875	3035.3432	3090.6866	3122.4152	3157.5959	3191.4749	3199.274	3764.7659
CC1=CC=NC(O)=C1	Cc1ccnc(O)c1	
InChI=1S/C6H7NO/c1-5-2-3-7-6(8)4-5/h2-4H,1H3,(H,7,8)	InChI=1S/C6H7NO/c1-5-2-3-7-6(8)4-5/h2-4H,1H3,(H,7,8)
