11
gdb 4620	5.85296	1.63904	1.28046	3.0254	57.79	-0.2329	-0.0904	0.1425	842.8488	0.072562	-434.576241	-434.570012	-434.569068	-434.606666	23.296	
O	-0.0150626087	 1.3724741647	 0.0083837016	-0.423494
C	-0.0194277021	 0.0201362259	 0.0010909993	 0.340827
C	-1.1739804489	-0.6839109951	 0.0040631499	-0.015316
O	-1.160340008	-2.0367842313	-0.0033270367	-0.19591
C	 0.0277330361	-2.7512119291	-0.014156592	 0.398875
O	 0.0040361203	-3.9520022273	-0.0206237131	-0.332635
C	 1.2218502123	-1.8995696279	-0.0166070736	-0.116934
N	 1.1968333912	-0.6077921839	-0.0094632568	-0.275047
H	 0.9119952732	 1.6432553115	 0.0043694913	 0.306236
H	-2.1681563711	-0.2598400892	 0.0121976634	 0.159444
H	 2.1782798758	-2.4147746182	-0.0250438735	 0.153954
104.4598	327.7067	363.5216	370.2086	396.6873	439.522	537.6506	559.56	626.2565	770.9939	802.3429	816.851	840.2781	942.279	942.8683	1120.9469	1184.4738	1248.4165	1322.8791	1362.1564	1436.7106	1577.5031	1709.1454	1836.9174	3179.5543	3238.45	3792.8424
OC1=COC(=O)C=N1	Oc1coc(=O)cn1	
InChI=1S/C4H3NO3/c6-3-2-8-4(7)1-5-3/h1-2,6H	InChI=1S/C4H3NO3/c6-3-2-8-4(7)1-5-3/h1-2,6H
