14
gdb 1686	3.75243	2.21217	1.74956	3.9333	49.1	-0.2534	0.0125	0.2659	738.2968	0.114401	-398.880824	-398.873593	-398.872648	-398.912502	25.922	
N	-0.1505492888	 1.6085972304	 0.1828035864	-0.533181
H	-0.3053522173	 1.3813567487	-0.7920019123	 0.247355
H	 1.420839697	 1.0725758033	 1.3775840054	 0.29447
H	-0.5154806631	 2.5445214981	 0.3321255017	 0.252494
C	-0.8248406419	 0.6445221872	 1.0638803661	-0.185527
C	-0.1120406476	 0.6723255005	 2.4245303303	-0.001757
O	 1.2968491038	 0.6487689831	 2.2495786787	-0.445044
C	-0.5343730018	 1.9108644169	 3.243641103	 0.388889
O	-1.6797669353	 2.2532484755	 3.3768921463	-0.340449
O	 0.496811887	 2.5594436013	 3.7985862375	-0.363696
H	-1.8920769389	 0.836563637	 1.2195760386	 0.135044
H	-0.708011195	-0.3514779174	 0.6277029109	 0.116855
H	-0.4012816604	-0.2073700664	 3.0108727067	 0.123517
H	 1.2934451824	 2.0803104817	 3.4957324807	 0.31103
69.0896	103.6355	253.6067	285.4812	304.6485	367.8289	519.7552	557.6209	592.8537	680.0796	759.3319	820.2203	855.3697	889.4597	930.4653	979.2826	1060.5136	1119.343	1174.2182	1221.5802	1251.582	1326.9601	1351.1564	1397.9479	1419.0754	1439.4798	1494.8128	1657.7146	1865.5781	3043.9791	3057.1229	3100.8354	3510.9192	3565.1998	3592.4775	3597.1035
[NH3+]CC(O)C([O-])=O	NC[C@@H](O)C(=O)O	
InChI=1S/C3H7NO3/c4-1-2(5)3(6)7/h2,5H,1,4H2,(H,6,7)	InChI=1S/C3H7NO3/c4-1-2(5)3(6)7/h2,5H,1,4H2,(H,6,7)/t2-/m1/s1
