16
gdb 673	5.54659	4.21741	3.10185	0.1741	59.15	-0.2611	0.0913	0.3524	507.8818	0.146218	-234.503085	-234.497918	-234.496974	-234.531247	20.793	
C	-0.0052253972	 1.5069128594	 0.3285596441	-0.285852
C	 1.288417328	 0.8175277619	-0.0348109828	-0.011946
C	 2.1576431388	 0.2998579347	 1.1029232951	-0.204454
C	 1.1805040489	-0.4514154545	 2.0389318176	-0.218893
C	 0.0480327955	-0.9648302276	 1.1173884721	-0.204454
C	-0.0104317837	 0.0388782528	-0.0259075474	-0.011946
H	-0.1784956492	 1.8077090028	 1.3573591209	 0.1051
H	-0.4212125422	 2.1924528123	-0.4017680112	 0.105108
H	 1.7683719939	 1.0930393751	-0.9676291894	 0.075479
H	 2.9045073197	-0.3930208398	 0.6959334052	 0.095755
H	 2.7058262937	 1.0905891828	 1.6272254799	 0.093488
H	 1.6685839179	-1.2592668571	 2.5905153535	 0.094557
H	 0.7742397543	 0.2348440349	 2.7885201109	 0.103335
H	 0.303100177	-1.9525352901	 0.7137715686	 0.095755
H	-0.9023828768	-1.0724905788	 1.6519660871	 0.093488
H	-0.4889845088	-0.2602312489	-0.9521546943	 0.075479
238.8338	294.1438	393.4922	611.2277	623.7702	762.3144	816.6869	827.2676	873.097	884.7915	896.4924	971.3598	973.2461	990.656	1053.3053	1067.3583	1085.8051	1105.7809	1133.5286	1182.1669	1205.3393	1211.0803	1260.3509	1314.8475	1321.6073	1332.3545	1362.9411	1396.3309	1488.5075	1491.781	1494.9329	1517.4896	3026.1196	3028.0472	3049.1382	3064.5231	3068.8471	3097.7948	3126.6693	3160.3527	3169.326	3208.7593
C1C2CCCC12	C1[C@H]2CCC[C@@H]12	
InChI=1S/C6H10/c1-2-5-4-6(5)3-1/h5-6H,1-4H2	InChI=1S/C6H10/c1-2-5-4-6(5)3-1/h5-6H,1-4H2/t5-,6+
