16
gdb 1134	5.12285	1.99541	1.88873	3.0346	62.19	-0.257	0.0325	0.2895	753.875	0.13577	-325.793945	-325.786706	-325.785761	-325.824817	27.264	
C	-0.3440692415	 1.6185178988	-0.0588280842	-0.430626
C	-0.0029764658	 0.138866047	-0.0725307618	 0.41449
C	-1.1707939451	-0.751782958	 0.3132754566	-0.430626
C	 0.8591286517	-0.349293938	-1.2667868215	-0.406492
C	 1.9282631384	-0.5576865939	-0.2187781851	 0.432475
N	 3.1122522394	-0.9734584473	-0.2367086816	-0.545068
O	 1.1493438643	-0.1216149732	 0.8284088561	-0.286058
H	 0.5331358321	 2.2229993578	-0.3051962189	 0.128086
H	-1.1303824485	 1.8347834788	-0.789597272	 0.123412
H	-0.7036297082	 1.9206850493	 0.929575051	 0.130096
H	-1.991662113	-0.6344495681	-0.4019104629	 0.123412
H	-0.8711853859	-1.8032749525	 0.3268065843	 0.128086
H	-1.5434426058	-0.4873305773	 1.3076233221	 0.130098
H	 0.5170608008	-1.2615158718	-1.7589874949	 0.132163
H	 1.0977772941	 0.4034390226	-2.020352094	 0.132164
H	 3.5162614131	-0.9670450244	 0.7017910066	 0.224389
91.8451	210.0242	244.8181	315.7395	329.9831	346.3964	430.5426	497.036	505.2655	623.2888	790.8431	843.9567	869.5303	904.1101	952.1485	955.7369	991.6587	1017.0956	1030.6416	1095.1912	1151.7162	1215.2496	1285.0162	1289.6989	1312.0729	1405.6431	1417.5832	1464.973	1475.8029	1483.0308	1495.6092	1505.7725	1821.2977	3035.9805	3041.2144	3082.786	3107.0179	3113.4122	3117.8496	3120.4252	3136.751	3471.3261
CC1(C)CC(=N)O1	CC1(C)C[C]([NH])O1	
InChI=1S/C5H9NO/c1-5(2)3-4(6)7-5/h6H,3H2,1-2H3	InChI=1S/C5H9NO/c1-5(2)3-4(6)7-5/h6H,3H2,1-2H3
