14
gdb 315	8.74308	2.25286	2.04782	1.3233	49.09	-0.2525	0.0691	0.3216	617.3904	0.119358	-307.548619	-307.542315	-307.541371	-307.578204	23.5	
O	 0.6806474819	 0.8825017678	-0.7539403016	-0.429613
C	 0.0491346895	-0.1429785624	-0.031866705	 0.175106
C	 0.1319312211	-0.1736785472	 1.518922506	-0.306985
C	-1.3142541316	-0.7405545752	 1.5196012303	 0.175106
O	-2.212765082	-0.3857056869	 2.5387031026	-0.429613
C	-1.4995001511	-0.1802096981	 0.0827845099	-0.306984
H	 0.3723814296	 1.725931855	-0.4064667479	 0.274529
H	 0.4297163516	-1.0746298657	-0.4599796229	 0.097429
H	 0.9293825503	-0.7433245337	 2.000285786	 0.1068
H	 0.1369336098	 0.8497102431	 1.917533939	 0.082733
H	-1.3030939177	-1.8341329261	 1.511911723	 0.097429
H	-2.2535569291	 0.5754433095	 2.5795538188	 0.274529
H	-1.9001005792	 0.8415726952	 0.1242663399	 0.082733
H	-2.075515023	-0.7553503252	-0.6449213982	 0.1068
118.1642	264.6552	283.1217	351.8618	432.0529	447.2421	460.3766	570.5646	773.3534	793.4743	889.4976	960.5051	1009.5084	1061.8962	1065.0964	1080.5994	1113.354	1180.8056	1191.5592	1249.2249	1258.405	1294.7456	1324.1369	1341.6458	1427.5235	1450.3162	1462.3177	1492.8428	3021.6416	3029.3466	3072.3949	3076.0853	3109.9915	3116.9617	3808.0653	3808.7515
OC1CC(O)C1	O[C@H]1C[C@@H](O)C1	
InChI=1S/C4H8O2/c5-3-1-4(6)2-3/h3-6H,1-2H2	InChI=1S/C4H8O2/c5-3-1-4(6)2-3/h3-6H,1-2H2/t3-,4+
