15
gdb 961	3.51132	3.36338	1.75533	3.4972	63.54	-0.2061	0.0383	0.2443	716.3821	0.126183	-304.752598	-304.745444	-304.7445	-304.783881	25.475	
C	-0.0763942694	 1.5318035338	 0.1329717369	-0.50969
C	-0.0137050515	 0.0491592761	-0.0198578759	 0.229117
C	 0.0416572309	-0.7823073598	-1.114653742	 0.215573
C	 0.0573636276	-0.4247296927	-2.56622682	-0.490033
N	 0.0860592061	-2.1050750971	-0.7125418672	-0.30798
C	 0.058070546	-2.078599474	 0.5965801037	 0.000682
N	-0.0022147717	-0.8029289699	 1.0715875354	-0.290854
H	 0.7810185852	 1.9271152664	 0.6921915216	 0.127549
H	-0.0751764524	 2.0119432385	-0.8478024023	 0.141732
H	-0.9853397675	 1.8561334874	 0.6552660637	 0.127549
H	 0.9638283196	-0.8001934205	-3.0534959853	 0.131491
H	-0.795474759	-0.8702811823	-3.0899119484	 0.131483
H	 0.0173729653	 0.6575209177	-2.7163492323	 0.111501
H	 0.0789546067	-2.9373148493	 1.2515089858	 0.123067
H	-0.0341484158	-0.5244559343	 2.0379640963	 0.258813
73.8898	120.3506	222.6331	267.9993	284.2148	400.1428	494.3466	635.5327	658.5941	696.0635	714.1632	803.9527	955.5909	981.3188	983.9804	1059.3701	1067.1771	1116.5572	1172.0878	1254.5763	1288.4927	1376.6813	1412.2359	1425.9402	1462.8363	1474.8914	1482.1918	1490.9222	1496.2104	1531.3451	1641.6226	3016.4323	3033.3109	3059.6342	3085.568	3113.1652	3126.2827	3245.6584	3662.1172
CC1=C(C)N=CN1	Cc1c(C)nc[nH]1	
InChI=1S/C5H8N2/c1-4-5(2)7-3-6-4/h3H,1-2H3,(H,6,7)	InChI=1S/C5H8N2/c1-4-5(2)7-3-6-4/h3H,1-2H3,(H,6,7)
