17
gdb 2287	8.78858	1.18031	1.11373	0.1237	74.04	-0.237	0.0569	0.2939	1100.7718	0.148123	-272.55325	-272.545345	-272.5444	-272.586593	27.582	
C	 0.2616395371	 1.5813253894	-0.3136659057	-0.498175
C	 0.1305400168	 0.144228625	-0.1194459174	 0.08737
C	 0.0264974382	-1.0464117295	 0.0368579226	 0.04339
C	-0.1207317573	-2.4721540198	 0.2464818497	-0.138545
C	-0.0174752611	-3.0512570366	 1.6965061004	-0.212818
C	-1.1512930865	-4.046904597	 1.3374496807	-0.216837
C	-1.5421798023	-3.1202334756	 0.1566513853	-0.212825
H	 1.0740147449	 1.8189179651	-1.0097502583	 0.145062
H	-0.6587243833	 2.0147804706	-0.7212612433	 0.145049
H	 0.4763190014	 2.0942512265	 0.6307371903	 0.14489
H	 0.565868257	-3.0209489059	-0.408753594	 0.094279
H	 0.9500458567	-3.4528585331	 2.0056074428	 0.09959
H	-0.3448466545	-2.3100284968	 2.4298477663	 0.109682
H	-0.7538627664	-5.0039592676	 0.9867973309	 0.102127
H	-1.9098930665	-4.2447109994	 2.0974554215	 0.098482
H	-2.3114516036	-2.398969647	 0.4436726301	 0.109697
H	-1.8224590506	-3.5783055683	-0.7944211817	 0.099581
25.381	98.1329	109.5024	195.1074	294.6482	316.2526	469.9054	507.627	564.3238	722.1186	787.9065	870.0187	909.7148	934.2034	939.429	999.3825	1020.6683	1052.6181	1054.1053	1122.0543	1193.4275	1200.9213	1235.1834	1247.0899	1253.4246	1273.8047	1280.9401	1362.2803	1415.1558	1477.763	1479.0057	1479.5558	1488.489	1509.4978	2365.27	3023.4508	3032.5105	3058.8883	3062.7414	3067.475	3082.4518	3083.0101	3105.3398	3118.8065	3128.9731
CC#CC1CCC1	CC#CC1CCC1	
InChI=1S/C7H10/c1-2-4-7-5-3-6-7/h7H,3,5-6H2,1H3	InChI=1S/C7H10/c1-2-4-7-5-3-6-7/h7H,3,5-6H2,1H3
