11
gdb 2618	11.90423	1.06334	0.98829	5.1013	52.92	-0.3151	-0.0299	0.2853	1051.3853	0.077278	-339.431591	-339.424302	-339.423358	-339.463878	23.35	
N	-0.0301607011	-1.1265252146	-0.0036084921	-0.278323
C	 0.0059769903	 0.0269258379	 0.0021879722	 0.275303
C	 0.0016737649	 1.4903837029	 0.0100312869	-0.186438
O	 1.3358457386	 1.952587228	-0.0001434012	-0.226256
C	 1.4000947004	 3.3631132584	 0.0066834165	-0.186438
C	 2.804484109	 3.7746318026	-0.0044746882	 0.275299
N	 3.9001456648	 4.136906382	-0.0129638496	-0.278321
H	-0.5544895022	 1.8484828887	-0.8710610281	 0.151292
H	-0.5376637231	 1.8390143149	 0.9052676773	 0.151294
H	 0.8972986196	 3.7926421153	-0.8745525081	 0.151294
H	 0.9141558089	 3.7832790039	 0.9017811643	 0.151294
80.6668	81.7872	102.4661	227.5837	347.9011	381.4349	382.5728	483.6495	610.886	926.3917	993.9865	1015.1514	1028.5213	1051.3931	1154.5823	1249.6319	1258.5631	1376.6845	1441.9933	1486.7193	1505.7989	2378.1779	2379.2735	2976.5772	2981.9944	3004.7207	3011.9783
N#CCOCC#N	N#CCOCC#N	
InChI=1S/C4H4N2O/c5-1-3-7-4-2-6/h3-4H2	InChI=1S/C4H4N2O/c5-1-3-7-4-2-6/h3-4H2
