11
gdb 4209	6.0401	2.58449	1.81001	0.9015	53.89	-0.2626	-0.0204	0.2422	620.837	0.080683	-347.459586	-347.454601	-347.453656	-347.488338	18.924	
F	 0.0017625602	 0.0204988465	 0.0033958174	-0.072574
C	-0.0162929356	 1.3514015762	 0.0106349158	 0.331646
C	-1.2284955473	 2.024298116	 0.0304166753	-0.258219
C	-1.1827741616	 3.4157446494	 0.0371213573	 0.024383
N	-0.0539827341	 4.1300866426	 0.0257556741	-0.264606
C	 1.0937690166	 3.4467879961	 0.0067893178	 0.024383
C	 1.1772118541	 2.057105294	-0.0016414457	-0.258217
H	-2.1650676291	 1.4806666911	 0.0401050057	 0.117986
H	-2.109725597	 3.983665964	 0.0525291038	 0.118616
H	 2.0049717836	 4.0397779797	-0.0023083891	 0.118617
H	 2.1281798803	 1.5392084545	-0.0171080222	 0.117986
239.0264	399.9819	409.1458	516.5605	545.7011	673.0041	755.5745	845.7907	852.7437	867.6911	981.6514	1000.9331	1009.5634	1067.9464	1090.9448	1234.8465	1293.2532	1303.0266	1347.2918	1442.0066	1531.0433	1627.958	1629.5152	3159.5217	3162.2427	3214.2719	3214.5343
FC1=CC=NC=C1	Fc1ccncc1	
InChI=1S/C5H4FN/c6-5-1-3-7-4-2-5/h1-4H	InChI=1S/C5H4FN/c6-5-1-3-7-4-2-5/h1-4H
