14
gdb 3624	5.42551	3.80792	3.55447	1.5952	58.74	-0.2176	0.081	0.2986	487.0866	0.116192	-287.337578	-287.333162	-287.332218	-287.365326	18.903	
C	-0.0321022114	 1.5375141092	 0.1138524777	-0.178577
C	 1.5001251675	 1.500198188	-0.0344952425	-0.07467
C	 1.9958219692	 0.5877579862	 1.1145118358	-0.083551
C	 2.0756866483	-0.6560151632	 0.2415546922	-0.109977
C	 0.8573601876	-0.4368010385	 1.0870588062	-0.017969
N	-0.0198989981	 0.0330024134	-0.0308607073	-0.156808
C	 1.3026587139	 0.1581811954	-0.8198031378	-0.003619
H	-0.4732414974	 1.915432516	 1.0412259482	 0.100063
H	-0.5391113501	 1.9763059483	-0.7512296852	 0.104925
H	 2.1189993847	 2.3358800979	-0.3598172064	 0.067744
H	 2.5573189436	 0.8415336825	 2.0028724941	 0.089512
H	 2.7848486161	-1.4703273724	 0.1937159586	 0.093455
H	 0.4827320639	-0.9725000735	 1.9492320755	 0.091503
H	 1.2793175222	 0.0341255807	-1.9006800091	 0.07797
421.8101	552.6105	729.8264	759.9201	780.4019	805.5174	817.5806	832.9902	844.4609	866.2261	887.1846	929.7084	962.0786	992.8538	1013.0138	1037.6901	1044.1215	1054.0337	1088.8899	1137.3578	1155.5954	1180.4255	1209.6337	1223.3469	1241.8089	1259.6836	1298.6741	1350.5755	1495.9943	3045.6289	3104.744	3118.1992	3134.768	3197.7161	3206.7217	3220.5661
C1C2C3C4C3N1C24	C1[C@H]2[C@@H]3[C@H]4[C@@H]3N1[C@@H]24	
InChI=1S/C6H7N/c1-2-3-4-5(2)7(1)6(3)4/h2-6H,1H2	InChI=1S/C6H7N/c1-2-3-4-5(2)7(1)6(3)4/h2-6H,1H2/t2-,3+,4+,5-,6+/m0/s1
