12
gdb 920	5.67614	2.78831	1.8698	4.0148	59.34	-0.2165	-0.0382	0.1783	629.1283	0.093535	-323.448965	-323.443695	-323.442751	-323.477888	20.367	
O	-0.048900885	-0.0813829352	 0.0039905476	-0.398833
C	 0.0170933678	 1.1364877824	 0.0091106936	 0.423675
N	-1.1667447743	 1.9068106253	 0.0287523854	-0.34499
C	-1.2285222662	 3.2655673574	 0.0362464657	 0.047127
C	-0.0888061969	 4.0076969631	 0.0246351412	-0.173491
C	 1.1569335438	 3.3159163192	 0.0045582797	-0.051327
C	 1.2155666648	 1.9551033687	-0.0029115439	-0.234836
H	-2.0143080994	 1.3561485142	 0.0373743266	 0.262016
H	-2.2223721706	 3.697071665	 0.0516673043	 0.134291
H	-0.1379422118	 5.0875630382	 0.0305929297	 0.107947
H	 2.077696995	 3.8918178166	-0.0049409802	 0.111675
H	 2.1558611529	 1.417946135	-0.0181452096	 0.116747
175.2798	390.6763	453.0362	491.7266	545.1137	613.6469	705.1019	746.3548	776.1591	818.5156	865.2875	934.5788	994.7222	1008.4249	1018.9776	1108.6512	1160.3228	1218.6164	1241.8435	1380.256	1451.358	1491.3611	1581.5619	1667.4535	1786.3837	3173.1069	3202.9311	3215.886	3233.7852	3605.8595
O=C1NC=CC=C1	O=c1[nH]cccc1	
InChI=1S/C5H5NO/c7-5-3-1-2-4-6-5/h1-4H,(H,6,7)	InChI=1S/C5H5NO/c7-5-3-1-2-4-6-5/h1-4H,(H,6,7)
