17
gdb 4110	2.94275	1.84486	1.19361	1.5792	67.24	-0.2482	0.0017	0.25	987.7314	0.142191	-400.973483	-400.965489	-400.964545	-401.005869	29.942	
O	-0.1232759768	 1.2828584917	-0.3380274878	-0.393333
N	-0.0338176636	-0.1164363281	-0.2835843628	-0.245255
C	-1.1328496738	-0.6528506191	 0.0569303717	 0.37948
C	-2.4741434582	-0.023345159	 0.3390044995	-0.301207
C	-3.4120025797	-1.2352445361	 0.5649698625	-0.226882
C	-2.7229878458	-2.4024289614	-0.1710151228	-0.228825
C	-1.2313876346	-2.1665809754	 0.1125423335	 0.087487
O	-0.3723473316	-2.8380324846	-0.7759616649	-0.445089
H	 0.7618120791	 1.5376046313	-0.6203907462	 0.307513
H	-2.4343238563	 0.6712874006	 1.1833896884	 0.128303
H	-2.7723451057	 0.5726252276	-0.5319155257	 0.134707
H	-3.4815008342	-1.4592235143	 1.6352842825	 0.107935
H	-4.4283953505	-1.052132376	 0.2096366744	 0.106634
H	-3.066467478	-3.3867374114	 0.1548997176	 0.105617
H	-2.8797892937	-2.329250894	-1.25343376	 0.11174
H	-1.0220284573	-2.4811365987	 1.1524517606	 0.081666
H	 0.3698652607	-2.242223693	-0.9392239105	 0.289507
73.4592	188.4386	191.5667	223.9596	268.2914	335.0926	379.5761	467.7087	523.4989	541.9963	590.1185	648.9114	772.0167	842.4909	895.8046	916.1178	957.3344	1009.2002	1014.4213	1062.2901	1109.607	1156.985	1196.9524	1221.3491	1223.2615	1282.1563	1299.1647	1313.0188	1336.6392	1373.1087	1407.3981	1419.8871	1463.0674	1492.4442	1504.8745	1765.3575	2921.4066	3043.3835	3044.7955	3050.0727	3084.6649	3104.7452	3112.8154	3769.6368	3815.6461
ON=C1CCCC1O	ON=C1CCC[C@H]1O	
InChI=1S/C5H9NO2/c7-5-3-1-2-4(5)6-8/h5,7-8H,1-3H2	InChI=1S/C5H9NO2/c7-5-3-1-2-4(5)6-8/h5,7-8H,1-3H2/t5-/m1/s1
