14
gdb 4301	3.91479	1.8477	1.26506	4.8961	67.78	-0.234	-0.0516	0.1824	910.1514	0.107749	-382.60904	-382.602157	-382.601213	-382.64018	25.646	
C	-0.0247375935	 1.5304489655	 0.0348178945	-0.488327
C	 0.0025536595	 0.0286716632	-0.0065249535	 0.32779
C	-0.0282902917	-0.6652644569	-1.1750923373	-0.347732
C	-0.0023222639	-2.110751997	-1.2294082545	 0.433731
O	-0.0255120047	-2.8145773548	-2.2018926933	-0.343504
O	 0.057839752	-2.7516701284	 0.0310951693	-0.22086
C	 0.0875921825	-2.0544193914	 1.1735535203	 0.098136
C	 0.0635104091	-0.7088680247	 1.2260527792	-0.25571
H	 0.86871206	 1.9187117703	 0.5372008384	 0.143543
H	-0.0729625251	 1.9606367205	-0.9674860444	 0.137401
H	-0.8894779042	 1.8849537778	 0.6074380671	 0.143464
H	-0.0743834811	-0.1679546967	-2.136446934	 0.118895
H	 0.1329944184	-2.7027615368	 2.0414942161	 0.142739
H	 0.0899899527	-0.2050841406	 2.1835716221	 0.110435
128.1901	158.6627	197.1738	304.7797	406.7905	459.5591	507.9152	584.0579	614.6995	729.5617	750.2673	801.6517	828.0838	882.522	947.2017	972.1974	1030.1238	1062.0375	1091.5221	1139.7159	1214.3068	1293.6788	1346.6227	1409.7352	1468.1005	1478.4654	1486.9517	1587.7468	1688.6716	1845.6828	3033.1836	3086.9224	3131.619	3198.1037	3207.7139	3222.1999
CC1=CC(=O)OC=C1	Cc1cc(=O)occ1	
InChI=1S/C6H6O2/c1-5-2-3-8-6(7)4-5/h2-4H,1H3	InChI=1S/C6H6O2/c1-5-2-3-8-6(7)4-5/h2-4H,1H3
