13
gdb 1156	3.37268	2.28179	1.89625	2.6809	59.91	-0.2758	0.0038	0.2797	730.7362	0.099999	-303.465315	-303.457504	-303.45656	-303.496644	28.245	
C	-0.01074603	 1.5460214776	 0.0117833112	-0.384944
C	-0.0016079941	 0.0004630639	 0.0189605541	-0.102928
N	 0.691879091	-0.4588886439	 1.2325941918	-0.504702
C	-1.3749239673	-0.5199163381	 0.0257360195	 0.393234
C	-2.5004642207	-0.9357150126	 0.0334645264	-0.464136
C	 0.6774164326	-0.4797508764	-1.2189033485	 0.268714
N	 1.2609399932	-0.8544161246	-2.1439772987	-0.339135
H	 1.0160944121	 1.9222786791	-0.003496008	 0.131737
H	-0.5366201638	 1.9244193827	-0.8663424663	 0.14664
H	-0.5087816134	 1.8927035699	 0.9185662736	 0.149063
H	 0.6827188343	-1.4741123843	 1.2709578555	 0.249603
H	 1.6662919966	-0.1710737156	 1.1896404714	 0.243647
H	-3.4956030303	-1.3079487075	 0.038383408	 0.213207
131.0792	175.6706	191.8161	239.2346	268.9224	298.0719	384.1558	473.5873	505.6524	578.9177	606.0572	652.9441	670.9208	688.1918	872.4812	908.4136	980.339	1045.5555	1160.4169	1193.1645	1335.0583	1403.6592	1485.1911	1486.4016	1654.063	2249.3778	2344.4135	3055.0062	3135.7975	3157.3686	3488.1001	3500.4155	3574.1176
CC(N)(C#C)C#N	C[C@@](N)(C#C)C#N	
InChI=1S/C5H6N2/c1-3-5(2,7)4-6/h1H,7H2,2H3	InChI=1S/C5H6N2/c1-3-5(2,7)4-6/h1H,7H2,2H3/t5-/m1/s1
