9
gdb 3922	8.87817	2.09426	1.69454	3.5241	45.5	-0.2817	-0.0904	0.1913	644.7354	0.05559	-375.368783	-375.363411	-375.362467	-375.398327	17.984	
O	-0.0797225519	-0.0053692339	-0.001264635	-0.222849
C	 0.0120324808	 1.1927020239	 0.00647146	 0.10248
C	 1.3032726759	 1.9366869321	-0.0012550855	 0.27348
N	 2.4803092347	 1.3580018892	-0.0175853239	-0.135148
O	 3.3608680805	 2.429649035	-0.0184952145	-0.135066
C	 2.6132924282	 3.5401281537	-0.0031121044	 0.113257
N	 1.3400343446	 3.3161192707	 0.0081318834	-0.290855
H	-0.8659459092	 1.8689291454	 0.0202307529	 0.11337
H	 3.1356866364	 4.4851599239	-0.0015873431	 0.181331
113.4687	214.1427	265.3348	492.7785	641.1696	713.5432	772.0413	904.573	943.8377	986.1283	1026.2289	1040.2656	1124.8889	1283.1177	1332.6219	1429.3101	1497.4906	1572.62	1829.3478	2944.2409	3274.2136
O=CC1=NOC=N1	O=Cc1nocn1	
InChI=1S/C3H2N2O2/c6-1-3-4-2-7-5-3/h1-2H	InChI=1S/C3H2N2O2/c6-1-3-4-2-7-5-3/h1-2H
