12
gdb 983	3.79505	3.41067	1.81011	0.5369	52.28	-0.1856	0.0309	0.2165	646.3254	0.090801	-360.526636	-360.520161	-360.519217	-360.556668	23.893	
N	 0.0333629466	 1.4382838676	-0.1416041662	-0.615812
C	 0.0368121354	 0.0364945148	-0.0218977807	 0.130192
C	-1.0422007246	-0.7905387834	 0.0426438021	 0.296428
O	-2.3599818512	-0.5144493666	 0.1518990596	-0.429534
O	-0.6575013355	-2.1019038975	 0.0635922909	-0.168311
C	 0.7030205146	-2.1022872106	 0.0137458296	-0.012152
C	 1.1824582165	-0.8333903712	-0.0366985796	-0.231956
H	 0.7004998733	 1.8757004014	 0.483404704	 0.242784
H	-0.8863928907	 1.8148456395	 0.0568443589	 0.245179
H	-2.8259705409	-0.8212486072	-0.6362821462	 0.306054
H	 1.1716225181	-3.0718813186	 0.0184550367	 0.13223
H	 2.2186802185	-0.5372638881	-0.0924971691	 0.104898
166.7993	240.2816	255.5855	286.9048	310.4194	480.6314	607.2326	647.3964	653.3843	716.1142	755.3253	807.1693	826.8629	905.2973	1052.7534	1071.9574	1155.1809	1203.0303	1257.162	1316.1293	1324.5355	1471.8581	1556.6595	1649.1808	1728.4276	3250.5772	3286.89	3517.1939	3604.0448	3752.0906
NC1=C(O)OC=C1	Nc1c(O)occ1	
InChI=1S/C4H5NO2/c5-3-1-2-7-4(3)6/h1-2,6H,5H2	InChI=1S/C4H5NO2/c5-3-1-2-7-4(3)6/h1-2,6H,5H2
