15
gdb 2423	4.46072	3.31114	2.50814	1.7406	60.59	-0.2274	0.0884	0.3158	596.9693	0.124878	-308.430606	-308.424815	-308.42387	-308.459767	23.03	
C	 0.02920021	 1.4535941591	-0.0883658567	-0.524403
C	 0.0042995937	-0.0382479413	-0.0072254945	 0.477543
O	 0.5612871594	-0.819675775	-1.1159716698	-0.359537
C	 0.098565109	-1.8160168638	-0.1608315826	 0.092792
C	 0.5380338044	-1.0144908702	 1.1002321388	-0.126667
C	-0.8553060045	-1.1461089135	 1.7517592618	-0.280289
C	-1.1838144664	-1.032127242	 0.2476648698	-0.126662
H	 1.0582993106	 1.8156997518	-0.174315357	 0.135575
H	-0.5329616747	 1.7995287796	-0.9612088335	 0.135562
H	-0.4190379621	 1.8915774711	 0.8090705386	 0.12849
H	 0.2272448666	-2.8713508145	-0.3988809319	 0.091937
H	 1.5298275255	-1.0031418768	 1.5529912565	 0.079159
H	-1.0815385281	-2.1037717031	 2.2284749306	 0.098862
H	-1.1798134226	-0.3194783111	 2.3900325876	 0.09848
H	-2.1451506209	-1.0407756104	-0.2666627079	 0.079158
198.2809	247.9756	287.8875	441.4928	538.9809	632.9663	721.7257	760.0585	781.1043	841.6541	867.7433	878.3309	920.9109	954.2617	977.3036	1023.071	1075.514	1086.2749	1122.4241	1127.6833	1146.8286	1172.7318	1184.0397	1246.7972	1249.9399	1280.764	1370.4139	1417.4575	1472.7853	1492.2798	1514.3733	3038.3058	3051.0945	3105.7765	3111.9335	3113.0858	3114.1073	3114.8242	3131.9717
CC12OC3C1CC23	C[C@@]12O[C@H]3[C@@H]1C[C@@H]23	
InChI=1S/C6H8O/c1-6-3-2-4(6)5(3)7-6/h3-5H,2H2,1H3	InChI=1S/C6H8O/c1-6-3-2-4(6)5(3)7-6/h3-5H,2H2,1H3/t3-,4+,5-,6+
