14
gdb 4386	3.79073	2.03982	1.33716	4.4792	69.53	-0.2281	-0.0624	0.1657	875.7062	0.108157	-378.75948	-378.752514	-378.75157	-378.791003	25.522	
C	 0.0839045605	 1.4758158619	 0.0306595582	-0.476275
C	-0.0532511096	-0.0085109941	-0.0070151349	 0.414994
C	-1.2006184806	-0.7113919859	-0.1480143609	-0.260895
C	-1.0789776091	-2.1374038983	-0.1557275393	 0.029822
N	 0.0416028251	-2.7751373633	-0.0378451238	-0.307285
C	 1.2099976613	-2.0393258112	 0.106321344	 0.422203
N	 2.3826147607	-2.495529817	 0.233144178	-0.52361
O	 1.1253978522	-0.6344613132	 0.1176458344	-0.229232
H	 0.7432456695	 1.8129412975	-0.7759902342	 0.159986
H	-0.8883619004	 1.9593980756	-0.0722404692	 0.139861
H	 0.5450954921	 1.7869447795	 0.9738324851	 0.159982
H	-2.1557390319	-0.2169032993	-0.2492022211	 0.112828
H	-1.9767217715	-2.7460976082	-0.2671180057	 0.123311
H	 2.3279981814	-3.512447474	 0.2117035095	 0.234309
77.5037	142.6999	183.7258	301.2615	424.9943	493.0968	531.2837	571.8926	605.5752	762.3079	769.0395	799.8907	861.9544	863.9308	975.954	1003.6344	1015.6305	1051.3999	1063.9999	1102.6561	1216.3687	1273.0681	1394.8103	1414.0947	1415.223	1466.9727	1480.795	1601.2836	1692.5951	1735.5707	3044.4942	3102.9805	3127.5734	3148.6189	3237.3679	3520.9814
CC1=CC=NC(=N)O1	C[C@H]1C=CN=C([NH])O1	
InChI=1S/C5H6N2O/c1-4-2-3-7-5(6)8-4/h2-3,6H,1H3	InChI=1S/C5H7N2O/c1-4-2-3-7-5(6)8-4/h2-4,6H,1H3/t4-/m0/s1
