13
gdb 3544	5.75374	2.89442	2.49831	3.4736	56.91	-0.2361	0.0082	0.2444	564.8473	0.103171	-307.284294	-307.27919	-307.278246	-307.312957	20.284	
O	 0.0282427489	 0.0692117769	-0.0081838888	-0.342101
C	 0.0085492	 1.2653453319	 0.0644746029	 0.449079
C	-1.0723158616	 2.301014578	 0.0443067388	-0.192928
C	-0.4666057998	 3.570201413	 0.6688562249	-0.061675
C	 0.9264872097	 3.2124981015	 1.1979593989	-0.236943
C	 1.0808051022	 2.3643388409	-0.0971308894	-0.182779
C	-0.0966621315	 3.2159616001	-0.7321490352	-0.072867
H	-2.1369802547	 2.1854769865	-0.1036226392	 0.111399
H	-1.1314078355	 4.3557701823	 1.0055596833	 0.101467
H	 1.5844364389	 4.0853335313	 1.1934075743	 0.111091
H	 1.0105356407	 2.6853451943	 2.1546998614	 0.106839
H	 2.0476699508	 2.1402003498	-0.5382275697	 0.094343
H	-0.2419072883	 3.6691688636	-1.700010422	 0.115075
168.8108	394.9113	455.4986	588.7093	709.2115	751.2298	768.8462	816.0988	821.3739	852.5731	883.4996	920.6523	983.7675	1003.0604	1024.3837	1034.2899	1067.8802	1095.391	1125.1124	1147.8517	1181.1612	1207.9959	1275.7681	1299.4928	1345.3152	1501.357	1882.5744	3042.2136	3104.9969	3168.4189	3194.4416	3221.8868	3248.1877
O=C1C2C3CC1C23	O=C1[C@H]2[C@H]3C[C@@H]1[C@@H]23	
InChI=1S/C6H6O/c7-6-3-1-2-4(3)5(2)6/h2-5H,1H2	InChI=1S/C6H6O/c7-6-3-1-2-4(3)5(2)6/h2-5H,1H2/t2-,3+,4-,5-/m0/s1
