14
gdb 3044	6.96165	1.50077	1.31464	3.9173	56.06	-0.2595	0.0234	0.2829	884.4108	0.112774	-361.677841	-361.670668	-361.669724	-361.709863	24.483	
N	-0.3108104899	 0.9997123304	 0.3366351936	-0.437875
C	-0.4742842566	-0.2503215608	 0.368001518	 0.126876
O	-0.6036027338	-0.9338772789	-0.7936223348	-0.186474
C	-0.8546015672	-2.331946267	-0.679806647	-0.116702
C	-2.2892338088	-2.6236245432	-0.3228337772	 0.081707
C	-2.6512464918	-3.8258101122	 0.4369653997	-0.177124
O	-2.617172884	-2.5456551481	 1.0686572851	-0.228538
H	-0.2149635831	 1.3581013664	 1.2846202149	 0.229824
H	-0.5259435065	-0.8871842796	 1.2590513616	 0.105334
H	-0.6158690921	-2.7495130247	-1.6622973853	 0.128884
H	-0.1894545937	-2.7895999709	 0.06426758	 0.113539
H	-3.0313294512	-2.1755205022	-0.98351868	 0.114917
H	-3.6405601226	-4.2616966913	 0.3114230689	 0.12633
H	-1.8735638086	-4.5221346479	 0.7486659126	 0.1193
76.8839	89.1123	123.0276	255.0486	324.0306	388.1184	468.8841	653.9252	796.2806	822.9828	866.3079	935.474	972.0677	1004.4	1045.8157	1096.0957	1126.8354	1152.4881	1161.4409	1175.1502	1255.7567	1288.5817	1324.1242	1381.63	1422.8866	1451.3509	1484.9232	1530.6742	1746.7398	3024.7258	3056.9984	3087.5376	3096.0907	3123.0727	3175.6696	3517.081
N=COCC1CO1	[NH][CH]OC[C@H]1CO1	
InChI=1S/C4H7NO2/c5-3-6-1-4-2-7-4/h3-5H,1-2H2	InChI=1S/C4H7NO2/c5-3-6-1-4-2-7-4/h3-5H,1-2H2/t4-/m0/s1
