10
gdb 4211	6.0816	2.76907	1.90272	1.2151	50.27	-0.268	-0.0598	0.2082	587.5551	0.068827	-363.508158	-363.503312	-363.502368	-363.53684	17.906	
F	 0.0029442931	 0.0469689938	 0.0034943976	-0.061694
C	-0.0107494852	 1.3731593274	 0.0103175101	 0.315369
C	-1.2397809306	 2.0373154626	 0.0303999413	-0.122815
N	-1.285572464	 3.3645732236	 0.0377367847	-0.214694
C	-0.1121235892	 4.0075397138	 0.0250464798	-0.011756
C	 1.0963881247	 3.3216259471	 0.0051710564	-0.014972
N	 1.1489580818	 1.9840411562	-0.0023243974	-0.278396
H	-2.1727343566	 1.4820250778	 0.040295553	 0.135435
H	-0.1404479408	 5.0927690206	 0.0309091511	 0.124348
H	 2.0452078168	 3.850469427	-0.0050502366	 0.129175
215.8668	427.0465	439.5378	545.325	576.7368	639.1554	777.1633	874.3073	876.1216	951.1177	988.8871	1025.4921	1083.8647	1197.8573	1250.6676	1313.0551	1327.9309	1443.2852	1507.3306	1595.5005	1618.2032	3168.5301	3179.4777	3188.8873
FC1=CN=CC=N1	Fc1cnccn1	
InChI=1S/C4H3FN2/c5-4-3-6-1-2-7-4/h1-3H	InChI=1S/C4H3FN2/c5-4-3-6-1-2-7-4/h1-3H
