13
gdb 1650	5.18576	1.97257	1.44201	0.2161	52.22	-0.2405	-0.0288	0.2117	800.6407	0.102097	-377.845502	-377.837829	-377.836885	-377.877565	26.323	
C	 0.0208297188	 1.4341224559	-0.0165776839	-0.333956
N	-0.1072655663	-0.0029513227	-0.1181297492	-0.299672
C	-1.258629422	-0.6628405483	 0.0948864575	 0.329405
O	-2.3383525496	-0.1748211603	 0.3964819654	-0.397952
C	-1.076022488	-2.1864693487	-0.0886943763	 0.33879
N	-2.228278783	-2.847154727	 0.1245338193	-0.516194
O	-0.0011144458	-2.6778154137	-0.3894833838	-0.379709
H	 0.7478440883	 1.7130940507	 0.7537750672	 0.134222
H	 0.3372200761	 1.8714220739	-0.9697174496	 0.134222
H	-0.9570008041	 1.8359911887	 0.2533983692	 0.167965
H	 0.6794687615	-0.5908188327	-0.3595349648	 0.270309
H	-3.0424525375	-2.3041630089	 0.3678509693	 0.283337
H	-2.2665869883	-3.8482914869	 0.0413042099	 0.269234
92.9868	95.3684	146.748	203.6153	336.1771	343.6901	393.6456	506.4958	525.1183	640.232	666.4571	685.7191	836.0157	852.0844	1062.2031	1102.831	1153.1617	1184.6935	1238.9924	1372.9176	1444.4805	1496.7277	1496.9767	1578.8761	1587.3875	1781.8092	1807.1177	3031.5339	3085.5117	3147.7066	3588.4311	3593.5587	3736.3072
CNC(=O)C(N)=O	CNC(=O)C(=O)N	
InChI=1S/C3H6N2O2/c1-5-3(7)2(4)6/h1H3,(H2,4,6)(H,5,7)	InChI=1S/C3H6N2O2/c1-5-3(7)2(4)6/h1H3,(H2,4,6)(H,5,7)
