13
gdb 3109	6.0091	2.23759	1.92176	1.9075	61.56	-0.2315	0.0154	0.2469	674.7848	0.100829	-307.234503	-307.228334	-307.22739	-307.264216	23.606	
C	 0.012677427	-1.1650284564	 0.0410635043	-0.42582
C	 0.0349093056	 0.0377768693	 0.0285125834	 0.243219
C	 0.0515051409	 1.4573644345	 0.0091430403	 0.306342
C	 0.2673777514	 2.3247617963	-1.2023616609	-0.327367
C	 1.1807067033	 2.4881442894	-0.0129192576	-0.179724
C	 0.4143122673	 3.1472071072	 1.1245845566	-0.089664
O	-0.6748155363	 2.1913077523	 1.0092840136	-0.315643
H	-0.0076461287	-2.2266358246	 0.0556736727	 0.195359
H	 0.7134765752	 1.8260799424	-2.0561172397	 0.130618
H	-0.4816817082	 3.0769350078	-1.4350999787	 0.122689
H	 2.2491798858	 2.3312900092	-0.059681142	 0.115046
H	 0.9056857612	 3.0501333587	 2.0987391786	 0.116554
H	 0.0769194354	 4.1796039737	 0.9771758494	 0.108389
157.4834	173.7436	333.8048	422.5227	477.8041	528.5576	571.6262	616.8803	690.0093	754.5509	836.9792	868.6003	936.5079	975.8085	986.2435	1003.4676	1027.6475	1078.4941	1122.3077	1144.6851	1177.6143	1282.2721	1338.019	1369.6326	1470.8299	1517.1343	2235.0806	3028.6572	3078.787	3118.0545	3212.0034	3221.0827	3501.9908
C#CC12CC1CO2	C#C[C@]12C[C@H]1CO2	
InChI=1S/C6H6O/c1-2-6-3-5(6)4-7-6/h1,5H,3-4H2	InChI=1S/C6H6O/c1-2-6-3-5(6)4-7-6/h1,5H,3-4H2/t5-,6-/m0/s1
