12
gdb 4625	6.88567	1.36194	1.13704	2.8779	68.	-0.2004	-0.0242	0.1763	960.8309	0.083551	-377.510959	-377.503825	-377.502881	-377.542315	26.411	
N	-0.1071405931	 1.2971670356	-0.0125067294	-0.609819
C	-0.0287733795	 0.0356075727	-0.0135811796	 0.477545
N	-1.0693539339	-0.8647249025	-0.0182219043	-0.413983
C	-0.5753581438	-2.1774185519	-0.0176460161	 0.190278
C	 0.7670496222	-2.0617328332	-0.0128252453	-0.140186
O	 1.128402852	-0.7378646805	-0.0103497101	-0.204199
C	-1.3965053542	-3.3185159253	-0.0215427642	 0.260647
C	-2.1236583765	-4.278290204	-0.0250098497	-0.438492
H	 0.8164453687	 1.7202722317	-0.0088450135	 0.228793
H	-2.0346541067	-0.5897733899	-0.0209883826	 0.282307
H	 1.5554187179	-2.7926430828	-0.0108705302	 0.162537
H	-2.7540842831	-5.1330781798	-0.0281633149	 0.204573
94.2739	147.3848	195.994	330.2546	418.0896	454.2912	553.9202	556.3939	556.9831	630.9808	691.3722	707.518	733.6561	747.2651	750.8019	905.0803	1019.5701	1061.7094	1110.4309	1229.053	1245.7302	1353.478	1409.3724	1664.6234	1803.8256	2236.6148	3306.8128	3500.1053	3549.8522	3709.0246
N=C1NC(=CO1)C#C	[NH][C@H]1NC(=CO1)C#C	
InChI=1S/C5H4N2O/c1-2-4-3-8-5(6)7-4/h1,3H,(H2,6,7)	InChI=1S/C5H5N2O/c1-2-4-3-8-5(6)7-4/h1,3,5-7H/t5-/m0/s1
