14
gdb 413	5.44881	3.03126	2.49382	1.7232	49.21	-0.2611	0.081	0.3421	566.509	0.118491	-307.545713	-307.539052	-307.538108	-307.575814	23.915	
C	-0.0913716947	 1.5778893129	-0.1576850254	-0.456605
C	-0.1200633046	 0.0686506899	-0.1001470526	 0.388376
C	-1.4181677635	-0.5608621817	 0.3672541009	-0.11378
O	-1.7078148782	-0.2025386671	 1.7078095862	-0.417266
C	 0.8248558571	-0.7371860689	-0.8841143524	-0.225561
O	 1.0318985804	-0.5450410285	 0.5181172293	-0.280965
H	 0.9205678843	 1.9377551627	-0.3570709967	 0.12533
H	-0.7577487578	 1.9468395843	-0.9449721427	 0.121007
H	-0.433877235	 1.9921837376	 0.7946662282	 0.139941
H	-2.2585211473	-0.2000293469	-0.235765557	 0.11025
H	-1.3569156636	-1.6525646427	 0.2475724102	 0.090151
H	-0.9577038118	-0.4987737657	 2.236653417	 0.293305
H	 0.5621645661	-1.7512565918	-1.1838548123	 0.111876
H	 1.5425320385	-0.236639684	-1.5329837526	 0.11394
92.4932	203.2291	234.6757	342.9917	353.4628	401.2198	444.6464	542.9076	727.2012	838.4565	893.8568	928.9771	951.9582	1047.1876	1076.8117	1101.8252	1134.2905	1168.1782	1211.8641	1296.3974	1357.7064	1401.1137	1421.1817	1435.7966	1479.0168	1494.884	1501.5735	1532.0762	2996.3176	3041.6749	3074.7244	3079.7755	3110.1946	3131.8598	3164.6654	3796.3121
CC1(CO)CO1	C[C@@]1(CO)CO1	
InChI=1S/C4H8O2/c1-4(2-5)3-6-4/h5H,2-3H2,1H3	InChI=1S/C4H8O2/c1-4(2-5)3-6-4/h5H,2-3H2,1H3/t4-/m1/s1
