14
gdb 1422	5.21291	1.54267	1.36611	2.863	56.21	-0.255	-0.0361	0.219	873.0684	0.11152	-361.749428	-361.741505	-361.74056	-361.782464	26.513	
C	 0.0827085068	 1.6098223466	 0.3765767118	-0.395044
C	-0.0201699015	 0.1529373983	-0.0680198255	-0.050992
N	 0.6720462758	-0.1147757026	-1.3210923111	-0.291268
C	 0.0346608391	-0.5827348016	-2.4327360355	 0.157746
O	-1.1406898416	-0.8707273357	-2.4888685483	-0.312917
C	 0.4723089437	-0.8265928673	 0.9956001757	 0.149595
O	 0.7157024952	-0.5306862996	 2.1353898026	-0.235022
H	 1.1278489404	 1.9058574919	 0.5139554751	 0.121591
H	-0.3743683444	 2.2682418182	-0.365529234	 0.128913
H	-0.4214083144	 1.7438713137	 1.3358075031	 0.146631
H	-1.0665522232	-0.1150605681	-0.2704062843	 0.151801
H	 1.6465032397	 0.1342502078	-1.3975316965	 0.253227
H	 0.7239042291	-0.6746386613	-3.2940603284	 0.085354
H	 0.5956980353	-1.8665356901	 0.6179217553	 0.090385
45.1432	77.0114	193.7332	199.4244	225.2405	278.203	398.4803	435.7742	535.2423	614.4294	768.6019	844.8185	914.0762	947.8634	1030.5995	1109.9076	1122.3965	1151.308	1210.266	1318.5252	1335.0227	1401.2198	1419.9509	1427.0251	1487.4562	1490.6237	1519.2917	1804.7419	1835.7151	2887.9728	2951.35	3034.6653	3049.5267	3119.8818	3143.2627	3622.7752
CC(NC=O)C=O	C[C@@H](NC=O)C=O	
InChI=1S/C4H7NO2/c1-4(2-6)5-3-7/h2-4H,1H3,(H,5,7)	InChI=1S/C4H7NO2/c1-4(2-6)5-3-7/h2-4H,1H3,(H,5,7)/t4-/m1/s1
