15
gdb 1766	4.62081	1.94732	1.70255	3.1688	62.62	-0.2677	0.0181	0.2858	782.5005	0.124466	-304.696646	-304.688992	-304.688048	-304.72808	27.334	
C	-0.0644512027	 1.5276714921	-0.0954064746	-0.40419
C	 0.0040224518	 0.0279818605	 0.0529421987	-0.021676
N	 1.3014223178	-0.6233518736	-0.1509688647	-0.354733
C	 0.6933160528	-0.6633585364	 1.2000882698	 0.165328
C	 1.430861066	 0.0654829942	 2.3063539076	-0.453384
C	 0.0975823118	-1.9192534977	 1.6071966426	 0.236667
N	-0.3642646151	-2.9290248466	 1.9331442248	-0.34036
H	 0.85327765	 2.009709186	 0.2454952445	 0.134078
H	-0.2046177387	 1.789226765	-1.1493867834	 0.133031
H	-0.9094266448	 1.9355523419	 0.4685354424	 0.129114
H	-0.8703503439	-0.4989966674	-0.3256216391	 0.108118
H	 1.1954465776	-1.5195349071	-0.6197210108	 0.249881
H	 1.893186005	 0.9735296669	 1.9185799956	 0.138993
H	 0.7488650998	 0.3304712965	 3.1196892976	 0.136489
H	 2.2218381124	-0.5693727745	 2.7158321592	 0.142645
148.9263	156.3641	164.9077	175.1797	260.9484	337.3416	395.2032	465.5935	565.7137	593.9629	662.3312	768.7029	857.616	948.8242	978.614	1032.106	1090.7132	1096.48	1109.7431	1138.8137	1241.1429	1281.6804	1337.4166	1404.5116	1420.0957	1449.5224	1477.6503	1486.4394	1494.0909	1506.4281	2345.0212	3043.5955	3051.9422	3105.1868	3117.4187	3119.7365	3141.2362	3153.2224	3509.9729
CC1NC1(C)C#N	C[C@H]1N[C@]1(C)C#N	
InChI=1S/C5H8N2/c1-4-5(2,3-6)7-4/h4,7H,1-2H3	InChI=1S/C5H8N2/c1-4-5(2,3-6)7-4/h4,7H,1-2H3/t4-,5-/m1/s1
