14
gdb 3753	6.96095	2.15439	1.67999	0.3156	60.25	-0.2452	0.0049	0.2501	740.5243	0.114649	-320.773768	-320.766719	-320.765775	-320.805975	23.628	
C	-0.0411118729	 1.4264675443	 0.0300297573	-0.309938
N	-0.0385134069	-0.0207379439	-0.0013249199	 0.159037
N	 0.0051002538	-0.7032760163	-1.1386833469	-0.224308
C	 0.0529752641	-1.973911681	-0.7357257799	-0.13156
C	 0.0401794581	-2.0128038643	 0.6698029622	 0.309835
C	 0.0700314978	-3.1763951917	 1.6067446234	-0.497256
N	-0.0152864664	-0.7508435319	 1.109554903	-0.298464
H	 0.9506152273	 1.8098189904	 0.2890087164	 0.147939
H	-0.3222766872	 1.7790098255	-0.9614064124	 0.160806
H	-0.7622790691	 1.7689987156	 0.7738123052	 0.154493
H	 0.0869148809	-2.7805973191	-1.451105148	 0.11782
H	 0.9566859064	-3.7981398192	 1.4441860149	 0.133721
H	 0.0832127135	-2.8227966202	 2.6396333503	 0.143507
H	-0.8067483894	-3.8197125381	 1.4758620344	 0.134369
40.1398	59.7624	174.1854	273.6476	302.8679	429.0709	636.2034	677.5525	697.3083	763.1244	864.7848	995.1347	1017.0006	1045.5369	1068.0988	1089.9208	1148.2281	1204.9972	1346.5287	1356.9272	1405.8603	1421.1678	1439.0823	1447.4755	1482.0952	1485.3298	1499.1999	1507.704	1560.1415	3039.1556	3053.9038	3091.3313	3128.3406	3134.4696	3175.0545	3263.9297
CN1N=CC(C)=N1	Cn1ncc(C)n1	
InChI=1S/C4H7N3/c1-4-3-5-7(2)6-4/h3H,1-2H3	InChI=1S/C4H7N3/c1-4-3-5-7(2)6-4/h3H,1-2H3
