12
gdb 487	25.04915	1.45902	1.40244	0.0008	57.87	-0.2615	0.0391	0.3006	799.7895	0.093925	-232.030352	-232.023466	-232.022522	-232.06066	24.211	
C	 0.0088899041	-1.2169714407	-0.00462295	-0.43831
C	-0.0229037285	-0.0155357002	 0.0018455898	 0.293948
C	-0.0196380837	 1.4410663701	 0.0091318326	-0.341871
C	 1.4190511092	 2.0240975273	 0.0001306987	-0.341886
C	 1.4222897343	 3.4806989985	 0.0073814287	 0.29409
C	 1.3909159239	 4.6821462573	 0.0138906861	-0.438434
H	 0.0195574369	-2.2786915352	-0.0101789529	 0.197587
H	-0.5642559125	 1.8236131703	-0.8614963038	 0.144322
H	-0.5497075272	 1.8147918278	 0.8924774906	 0.144315
H	 1.9636703584	 1.6415462877	 0.8707580985	 0.144328
H	 1.9491216294	 1.6503680102	-0.8832135589	 0.144317
H	 1.3806105556	 5.7438667069	 0.0201453806	 0.197593
76.3815	123.2485	215.7511	328.1136	368.8763	493.9709	497.9959	621.9098	622.8574	651.2106	651.3263	767.2997	951.3712	972.9585	1018.3557	1035.9255	1196.0825	1283.8587	1306.6068	1366.2592	1471.6586	1482.0078	2239.087	2241.6563	3035.6136	3045.1882	3064.2371	3085.5998	3506.2857	3506.7295
C#CCCC#C	C#CCCC#C	
InChI=1S/C6H6/c1-3-5-6-4-2/h1-2H,5-6H2	InChI=1S/C6H6/c1-3-5-6-4-2/h1-2H,5-6H2
