13
gdb 4989	3.41755	2.36642	1.39824	0.333	63.29	-0.218	-0.0141	0.2039	810.5025	0.097891	-398.671774	-398.66546	-398.664516	-398.701938	24.823	
O	 0.0684716968	 1.38613876	-0.1059535135	-0.441908
C	 0.0552640653	 0.0290279141	-0.0762317679	 0.288644
C	-0.0222875445	-0.7173801807	-1.2383131607	-0.167448
C	-0.0318880604	-2.1127288426	-1.145770073	-0.118416
C	 0.0363667632	-2.701897814	 0.1059734638	-0.026664
N	 0.1118477902	-1.9866984712	 1.2412572579	-0.347511
C	 0.1201405855	-0.6760123276	 1.139541134	 0.320842
O	 0.1957544903	 0.079264329	 2.2694273623	-0.44578
H	 0.1240050325	 1.698075153	 0.8061291237	 0.31144
H	-0.0738759571	-0.206163659	-2.1930417992	 0.115491
H	-0.0918562098	-2.7242826026	-2.0382595038	 0.099751
H	 0.03139579	-3.7813267895	 0.220773967	 0.10852
H	 0.2315739081	-0.5391438888	 3.0113522194	 0.303039
180.8067	301.4889	310.5625	397.1514	457.9811	473.9679	509.8033	563.7449	591.9752	596.3887	776.666	784.8498	817.7525	888.5694	938.4842	964.8948	1073.9137	1105.0581	1180.1553	1209.8484	1285.5295	1311.3826	1365.0273	1409.8293	1506.5295	1514.3513	1646.7762	1654.5282	3173.7167	3195.1677	3209.9992	3781.2318	3790.9909
OC1=CC=CN=C1O	Oc1cccnc1O	
InChI=1S/C5H5NO2/c7-4-2-1-3-6-5(4)8/h1-3,7H,(H,6,8)	InChI=1S/C5H5NO2/c7-4-2-1-3-6-5(4)8/h1-3,7H,(H,6,8)
