8
gdb 20	11.1475	10.36388	5.42091	3.4869	28.07	-0.2495	0.0556	0.3051	244.2308	0.063824	-225.221461	-225.217075	-225.216131	-225.247724	15.292	
N	 0.0360526966	 1.360778727	-0.1241640253	-0.534786
C	-0.0259113822	-0.0207655962	 0.0020064507	 0.412243
N	 1.2196847948	-0.6233421968	 0.1196322188	-0.534788
O	-1.0682286604	-0.6417459677	 0.0086557294	-0.366992
H	 0.8074943898	 1.8345514839	 0.3214491515	 0.250544
H	-0.8582577528	 1.8037349999	 0.0224376956	 0.261619
H	 1.9992714792	-0.1730305398	-0.3360249618	 0.250543
H	 1.1820432749	-1.6214790103	-0.0210923389	 0.261618
389.2464	448.4343	470.6859	541.7229	581.2373	589.3696	785.8214	950.2875	1047.3104	1182.7426	1410.7026	1628.7851	1629.2567	1829.8049	3572.8928	3577.8181	3689.4545	3689.957
NC(N)=O	NC(=O)N	
InChI=1S/CH4N2O/c2-1(3)4/h(H4,2,3,4)	InChI=1S/CH4N2O/c2-1(3)4/h(H4,2,3,4)
