12
gdb 3729	7.25191	1.97193	1.70332	2.8572	51.43	-0.3167	-0.0687	0.248	717.4002	0.089852	-356.649302	-356.643036	-356.642092	-356.680079	21.552	
C	-0.0066849283	 1.5413737349	-0.1067879397	-0.384743
C	-0.025731896	 0.0155498839	 0.0841526513	-0.281168
C	-1.4086874847	-0.5390277654	 0.0987625894	 0.41725
N	-1.9892469163	-1.1084648022	 1.1162649557	-0.147916
O	-3.2253886399	-1.4382266189	 0.6711207529	-0.138756
N	-3.3458088813	-1.0361716557	-0.6558363001	 0.049143
N	-2.2626257544	-0.4996179994	-0.9953201655	-0.2022
H	 1.0243321817	 1.9022662718	-0.1455379278	 0.128631
H	-0.504731412	 1.8240192235	-1.0379977154	 0.146055
H	-0.5152279237	 2.0458853299	 0.7196738786	 0.134781
H	 0.5271003905	-0.465143335	-0.7306266949	 0.138653
H	 0.4616570644	-0.2653121975	 1.0211484456	 0.14027
56.8475	165.202	209.5058	344.5842	416.1967	657.3237	678.8923	696.4065	764.5644	803.3641	954.434	977.7239	1057.089	1065.0912	1085.5975	1119.4345	1265.0231	1326.8815	1354.3021	1411.4547	1475.9346	1484.8874	1497.6147	1509.6285	1599.874	3048.4102	3053.2324	3104.7067	3124.9963	3131.4099
CCC1=NON=N1	CCc1nonn1	
InChI=1S/C3H5N3O/c1-2-3-4-6-7-5-3/h2H2,1H3	InChI=1S/C3H5N3O/c1-2-3-4-6-7-5-3/h2H2,1H3
