14
gdb 2991	5.42454	1.88314	1.71681	1.5719	54.37	-0.2491	-0.0448	0.2043	742.0814	0.113094	-361.687451	-361.680528	-361.679584	-361.718618	24.76	
O	-0.7991811096	 0.8168963158	 0.1068447382	-0.433314
C	-0.1281222628	-0.3851861147	-0.152691003	 0.012465
C	 1.0530771045	-0.1329987606	-1.0690512943	 0.145197
O	 1.3267339939	 0.9798187563	-1.4507784645	-0.261608
C	 0.3754764597	-1.041226557	 1.1378479557	-0.009365
C	 0.9759235789	-0.1967298433	 2.1987412319	-0.232692
N	-0.3557729139	-0.8031734123	 2.3807864125	-0.319603
H	-0.298600164	 1.5019539328	-0.3664189969	 0.300427
H	-0.805233782	-1.0950042401	-0.6590819199	 0.104923
H	 1.661297014	-1.0149359077	-1.3518911265	 0.105836
H	 0.7242853689	-2.0635971043	 1.0060080815	 0.096933
H	 1.7585655413	-0.5967965979	 2.8360708037	 0.120796
H	 1.0251637426	 0.8727388027	 2.0151360832	 0.120252
H	-1.0575453716	-0.0864711596	 2.2011212886	 0.249754
75.6855	139.2792	240.6454	276.8373	324.6218	406.9214	485.2449	611.8146	721.526	800.3575	848.5001	884.1617	951.2884	960.3996	990.8873	1060.1172	1103.1949	1142.0479	1162.9795	1208.1106	1256.4096	1285.5503	1312.2092	1336.6318	1383.9981	1414.704	1432.0744	1501.5483	1809.5116	2941.1646	2962.705	3117.0814	3126.6648	3206.3272	3488.6938	3672.7846
OC(C=O)C1CN1	O[C@@H](C=O)[C@H]1CN1	
InChI=1S/C4H7NO2/c6-2-4(7)3-1-5-3/h2-5,7H,1H2	InChI=1S/C4H7NO2/c6-2-4(7)3-1-5-3/h2-5,7H,1H2/t3-,4+/m1/s1
