13
gdb 1227	7.72005	1.35061	1.15771	3.8149	51.93	-0.2479	0.0113	0.2592	938.4028	0.101186	-377.834156	-377.826233	-377.825289	-377.86796	26.196	
N	-0.0379456417	 1.3149432903	 0.0088350338	-0.521874
C	 0.0464575951	-0.0393000145	 0.0009066411	 0.404787
O	 1.1047716395	-0.6415380601	-0.0139557283	-0.360903
C	-1.2999375625	-0.7653634721	 0.0120137507	-0.23856
N	-1.0514572592	-2.1830109913	 0.0041720042	-0.274986
C	-2.0540298695	-3.0907964115	 0.0046564889	 0.153139
O	-3.236205308	-2.8094317959	 0.0142351058	-0.333499
H	 0.8138925015	 1.8510221179	 0.0019981851	 0.270455
H	-0.9180731231	 1.7999830943	 0.021452766	 0.269426
H	-1.8774234502	-0.4682272738	 0.8976984776	 0.143652
H	-1.8952333678	-0.4619064686	-0.8596363186	 0.143877
H	-0.0758274678	-2.4493352384	-0.0075593656	 0.266105
H	-1.6749731264	-4.1315038664	-0.0045242206	 0.07838
20.0389	71.3283	156.8765	171.1715	275.311	307.1243	425.3473	496.836	597.7923	614.5536	642.1628	764.5361	895.5459	1014.6242	1037.2326	1059.638	1107.9924	1224.1876	1235.8331	1296.6444	1408.1365	1422.7059	1495.7055	1518.6583	1623.2022	1788.5446	1805.3968	2944.4391	3017.354	3040.8543	3588.6657	3606.6471	3740.6356
NC(=O)CNC=O	NC(=O)CNC=O	
InChI=1S/C3H6N2O2/c4-3(7)1-5-2-6/h2H,1H2,(H2,4,7)(H,5,6)	InChI=1S/C3H6N2O2/c4-3(7)1-5-2-6/h2H,1H2,(H2,4,7)(H,5,6)
