19
gdb 2299	7.66503	1.19472	1.10233	1.3777	67.82	-0.2615	0.0808	0.3423	1088.3004	0.171885	-310.904631	-310.896679	-310.895734	-310.937138	28.752	
O	-0.0208928615	 1.4402283896	-0.0620161048	-0.420955
C	 0.0318210731	 0.0248897148	 0.0469607345	-0.070527
C	-1.3818928602	-0.5157867941	-0.1280654297	-0.197509
C	-1.460799446	-2.0318865414	-0.0206235777	 0.05779
C	-1.2368409805	-2.7187380207	 1.3602334847	-0.217484
C	-2.3726473961	-3.7155967113	 1.0063371029	-0.21033
C	-2.8566524373	-2.7152393882	-0.07757849	-0.233282
H	 0.8674154052	 1.7846446688	 0.0674294044	 0.283795
H	 0.6924787709	-0.4091027009	-0.7221468548	 0.081146
H	 0.4302605463	-0.2833335039	 1.0273436697	 0.086649
H	-2.0275007735	-0.0537440382	 0.6298626777	 0.098268
H	-1.7609682568	-0.1868386565	-1.104120093	 0.101937
H	-0.8000599541	-2.4918173467	-0.766695705	 0.06557
H	-0.2467172508	-3.1265819142	 1.5795393846	 0.091448
H	-1.5272298963	-2.0535486257	 2.1808951879	 0.097508
H	-1.9802219845	-4.6350485937	 0.5619788808	 0.099948
H	-3.0751842242	-3.9877929945	 1.7974460603	 0.094717
H	-3.6356364877	-2.0494904942	 0.308989053	 0.098239
H	-3.190289166	-3.1168584991	-1.0378364455	 0.093074
83.0879	100.9842	127.9749	187.1087	266.2773	337.0644	374.1111	447.9786	643.8711	766.5546	788.2866	801.166	896.4696	932.6422	940.7845	973.4447	988.0172	1001.8859	1058.0115	1093.6316	1120.1066	1177.5528	1199.2781	1221.3276	1240.6393	1256.2851	1261.4003	1264.9896	1282.9278	1292.7247	1316.4114	1331.7929	1389.5418	1461.4291	1478.8898	1486.2958	1492.1057	1511.86	1527.0461	2956.7592	2982.8764	3017.7873	3023.0312	3042.2558	3047.1783	3056.6119	3064.6158	3093.2301	3097.6585	3114.9362	3829.9625
OCCC1CCC1	OCCC1CCC1	
InChI=1S/C6H12O/c7-5-4-6-2-1-3-6/h6-7H,1-5H2	InChI=1S/C6H12O/c7-5-4-6-2-1-3-6/h6-7H,1-5H2
