21
gdb 1315	3.09416	2.42914	2.00669	0.0751	74.1	-0.2775	0.0802	0.3577	813.6898	0.194083	-274.989422	-274.981221	-274.980277	-275.020859	31.786	
C	-0.6519533204	 1.2387378054	-0.0593133961	-0.417152
C	 0.1550971597	-0.0505387791	-0.1097428492	 0.032469
C	 1.5644764652	-0.0463751661	-0.7596524436	-0.235732
C	 2.0298209488	-1.05524921	 0.3218710576	-0.249496
C	 0.7921923229	-0.6646034898	 1.1924610367	 0.339201
C	 1.1592187863	 0.3825160728	 2.2480309325	-0.434772
C	 0.0192235524	-1.8163048408	 1.8285179947	-0.452077
H	-0.0829507076	 2.0582016527	 0.3914874343	 0.112151
H	-0.9384250369	 1.5545307985	-1.0689928679	 0.111645
H	-1.574852126	 1.1152148254	 0.5191772762	 0.11119
H	-0.451685607	-0.8310492772	-0.5853613563	 0.063117
H	 1.6375188819	-0.3541246195	-1.8057771798	 0.090781
H	 2.0576203424	 0.9255028963	-0.6556379907	 0.096099
H	 1.9679097068	-2.0897925743	-0.0293535621	 0.091859
H	 3.0165687414	-0.9001260539	 0.7676479856	 0.08849
H	 1.7364009366	 1.2106654135	 1.8241353001	 0.110386
H	 0.2666541423	 0.8064272823	 2.7216118703	 0.110137
H	 1.7691008305	-0.0725673298	 3.0368885605	 0.108719
H	 0.6041991943	-2.2978673588	 2.6214999696	 0.108655
H	-0.9178672069	-1.4662927493	 2.2786715475	 0.108728
H	-0.2321789267	-2.5827503282	 1.0873949202	 0.105601
126.2252	205.944	229.8917	249.4179	262.9498	286.2113	350.2669	357.3337	408.4937	490.8054	592.4044	691.8311	768.6405	865.0129	893.5297	907.3497	947.0745	949.6238	966.5918	991.7466	1024.2918	1077.2852	1121.5504	1173.0631	1185.0149	1213.0516	1233.9251	1259.9405	1272.4252	1285.6896	1322.1598	1377.2452	1400.766	1407.9663	1419.8607	1478.957	1483.3049	1488.7264	1496.2491	1497.0647	1501.3232	1507.3589	1509.8904	3014.3066	3020.8309	3023.2867	3027.5215	3045.604	3050.874	3077.4271	3084.8731	3087.2795	3088.2705	3090.9419	3095.4611	3099.5128	3108.0542
CC1CCC1(C)C	C[C@H]1CCC1(C)C	
InChI=1S/C7H14/c1-6-4-5-7(6,2)3/h6H,4-5H2,1-3H3	InChI=1S/C7H14/c1-6-4-5-7(6,2)3/h6H,4-5H2,1-3H3/t6-/m0/s1
