17
gdb 1727	4.27013	2.09355	1.88016	2.2653	59.99	-0.2482	0.0626	0.3108	756.2771	0.147982	-346.839895	-346.832442	-346.831497	-346.870982	28.276	
O	 0.0019452405	 1.2904428815	-0.299199843	-0.436765
C	-0.0589997061	-0.1225168555	-0.1123526337	-0.136844
C	-1.5242555541	-0.4629198205	 0.1294185679	 0.450732
O	-1.9947298964	 0.2615628909	 1.2420739483	-0.48949
C	-2.3900500097	-0.4197489177	-1.1701197059	-0.272376
C	-2.2552413211	-1.9642934753	-1.2663633902	-0.214793
C	-1.789963103	-1.9834688394	 0.2163298176	-0.270966
H	 0.919705934	 1.5700759617	-0.2458588973	 0.293966
H	 0.3272551658	-0.6590123315	-0.9915124837	 0.090051
H	 0.5257360369	-0.4296042272	 0.7672495107	 0.094312
H	-1.6352206041	 1.1535232285	 1.1471755413	 0.281056
H	-3.4082607027	-0.112462486	-0.9208295803	 0.105676
H	-2.0229258088	 0.1875512312	-2.0005654747	 0.099729
H	-3.1584784219	-2.5277056239	-1.5076673638	 0.100356
H	-1.4648993513	-2.2740682553	-1.9553768848	 0.099806
H	-0.9490873524	-2.6285016266	 0.488827118	 0.090071
H	-2.6159917854	-2.1701088949	 0.9066443436	 0.11548
125.3818	154.4255	225.6932	254.4995	335.4745	358.1065	424.7961	469.9919	509.803	657.05	729.9051	790.2266	856.9926	905.4594	931.675	952.7203	980.1913	1033.1546	1054.1242	1084.2134	1150.4309	1195.0604	1199.4766	1224.7078	1243.0109	1256.4765	1268.294	1288.948	1317.4051	1403.1474	1450.0507	1469.7843	1484.6995	1505.1411	1509.8478	2984.3466	3024.9979	3053.0673	3063.1219	3068.7161	3104.71	3118.2226	3129.9533	3765.2806	3843.8706
OCC1(O)CCC1	OCC1(O)CCC1	
InChI=1S/C5H10O2/c6-4-5(7)2-1-3-5/h6-7H,1-4H2	InChI=1S/C5H10O2/c6-4-5(7)2-1-3-5/h6-7H,1-4H2
