9
gdb 3647	9.98363	1.98632	1.65671	3.4069	52.87	-0.2819	-0.0669	0.215	664.3624	0.0549	-338.156727	-338.151318	-338.150374	-338.185926	19.386	
C	 0.0017544687	-1.1812810121	-0.0036403591	-0.405001
C	-0.01457094	 0.020479152	 0.0030757928	 0.288556
C	 0.0119069029	 1.4330986172	 0.0103988593	 0.230599
N	-1.0714421664	 2.1809982134	 0.0281151269	-0.154361
O	-0.6303751067	 3.4656881932	 0.0295483299	-0.140348
N	 0.736464726	 3.5363864356	 0.012694908	-0.048299
C	 1.1468718605	 2.3021288805	 0.0008142771	-0.147164
H	 0.0038646437	-2.2438205907	-0.009419984	 0.215188
H	 2.1960028711	 2.0536908509	-0.0137507308	 0.16083
168.1795	179.2664	467.5895	518.8372	595.4884	643.5013	646.6633	684.938	727.7561	884.5969	901.4132	944.1672	1022.4019	1070.0452	1194.1635	1380.9484	1451.9059	1584.4064	2251.9141	3279.9977	3500.2591
C#CC1=NON=C1	C#Cc1nonc1	
InChI=1S/C4H2N2O/c1-2-4-3-5-7-6-4/h1,3H	InChI=1S/C4H2N2O/c1-2-4-3-5-7-6-4/h1,3H
