19
gdb 2575	2.95335	2.59702	1.72882	1.0756	67.36	-0.2455	0.0848	0.3303	826.4594	0.169954	-310.899911	-310.891559	-310.890614	-310.932271	30.512	
C	 0.5925410429	-0.144621631	 1.4097454491	-0.373711
C	 0.0721334126	-0.1738217309	-0.031365477	-0.248782
C	-1.3495562911	-0.6976919398	-0.1307373535	 0.46306
C	-1.839787318	-1.3301629435	-1.4105943273	-0.331831
C	-1.5942204924	-2.1755686479	-0.1742508426	-0.311586
O	-2.3019056686	 0.0030810332	 0.628771723	-0.283439
C	-2.6320080182	 1.2817156392	 0.123768677	-0.247676
H	 1.6046817875	 0.2684307362	 1.4561066692	 0.106043
H	-0.0572515212	 0.4653850333	 2.0431642872	 0.128124
H	 0.6172412694	-1.1520708454	 1.8379144077	 0.117029
H	 0.1286125912	 0.83180852	-0.4681276141	 0.094991
H	 0.7163457665	-0.8058896956	-0.6532998316	 0.095676
H	-2.8735317666	-1.1540693717	-1.6863781351	 0.115234
H	-1.1554035373	-1.4177058092	-2.2478200811	 0.109028
H	-0.7374518263	-2.8407985683	-0.160209679	 0.108969
H	-2.4655061546	-2.5392074916	 0.3575961407	 0.121364
H	-1.7924402434	 1.9882059166	 0.1869478243	 0.107665
H	-2.9642785242	 1.2319600078	-0.922995903	 0.1056
H	-3.4510698383	 1.6625651085	 0.738930556	 0.124242
81.3997	122.3687	188.9098	207.8393	226.6239	270.1529	347.4768	363.9834	447.9043	566.437	686.6169	773.6001	791.5553	882.5981	898.1793	942.0513	969.0406	1004.4832	1043.7365	1074.1453	1079.731	1109.2879	1118.0434	1181.6672	1188.7245	1220.1747	1256.4821	1297.0996	1347.1461	1381.8736	1408.927	1452.3243	1472.4087	1480.8215	1493.4768	1497.8774	1500.1389	1506.9809	1512.2288	2989.3881	3023.0507	3039.7636	3040.5944	3060.7334	3106.2059	3112.6787	3119.1093	3131.1248	3137.4337	3215.4572	3231.2328
CCC1(CC1)OC	CCC1(CC1)OC	
InChI=1S/C6H12O/c1-3-6(7-2)4-5-6/h3-5H2,1-2H3	InChI=1S/C6H12O/c1-3-6(7-2)4-5-6/h3-5H2,1-2H3
