16
gdb 1779	4.10365	2.15717	1.72054	2.2596	62.47	-0.2557	-0.0328	0.2229	779.3233	0.135142	-325.773278	-325.765395	-325.764451	-325.805058	27.971	
C	-0.0997262685	 1.3982033214	-0.1636281331	-0.404588
C	 0.0968056706	-0.0778860176	 0.0766553521	-0.009679
N	 1.4437085585	-0.6215009302	-0.0369628158	-0.360044
C	 0.8060498085	-0.6394100615	 1.2916132764	 0.22128
C	 1.3991958633	 0.2179457271	 2.3866477482	-0.476559
C	 0.2724032151	-1.9672198584	 1.7202674275	 0.103639
O	 0.1061603998	-2.8987027272	 0.9664936453	-0.275251
H	 0.7625717979	 1.9791367257	 0.1686918498	 0.131551
H	-0.2285470185	 1.5824511852	-1.2356871119	 0.130557
H	-0.9946965243	 1.765304493	 0.3494564966	 0.121295
H	-0.7090177579	-0.7108149481	-0.2929174176	 0.103009
H	 1.3931301537	-1.5704344268	-0.4102840977	 0.244623
H	 1.6979698165	 1.1959100302	 2.0085445525	 0.13716
H	 0.6778819018	 0.3690752942	 3.1975860589	 0.121228
H	 2.2900367621	-0.2575030109	 2.8110058681	 0.13114
H	 0.0308384215	-2.0553017262	 2.8018957408	 0.08064
119.2453	134.4586	167.1913	224.7001	233.9475	283.2461	367.0332	416.8192	471.7725	627.1327	749.9682	760.6766	874.3088	955.2009	991.9356	1004.4735	1053.3228	1099.5483	1104.7168	1139.866	1154.2419	1264.7246	1282.1318	1341.0943	1402.5782	1420.2325	1428.8643	1453.5904	1479.9828	1486.5273	1494.5103	1507.6704	1799.0156	2897.4076	3036.6079	3040.3443	3094.8517	3099.7162	3116.2249	3136.768	3147.2134	3456.8093
CC1NC1(C)C=O	C[C@H]1N[C@]1(C)C=O	
InChI=1S/C5H9NO/c1-4-5(2,3-7)6-4/h3-4,6H,1-2H3	InChI=1S/C5H9NO/c1-4-5(2,3-7)6-4/h3-4,6H,1-2H3/t4-,5-/m1/s1
