13
gdb 2527	2.70156	2.49356	1.37207	2.0256	51.39	-0.2609	-0.0564	0.2045	821.5791	0.09834	-381.594558	-381.586556	-381.585612	-381.627876	26.134	
O	 0.3341955715	 1.2796347115	-0.0541136411	-0.419596
C	 0.0222317205	-0.0909118589	 0.1419181242	-0.08606
C	-1.483336652	-0.3422655228	 0.05839949	-0.197982
C	-2.092197241	 0.1553095603	-1.2542488534	 0.149423
O	-3.2782683172	 0.2232831886	-1.4437947364	-0.24785
C	-1.8579283208	-1.8121112341	 0.2369109553	 0.141468
O	-1.0578890853	-2.6796478121	 0.4682874869	-0.231168
H	 0.0489608225	 1.7698533854	 0.7236021558	 0.288406
H	 0.5300557047	-0.6350899084	-0.6604852981	 0.13254
H	 0.4189369167	-0.4801587925	 1.0872119808	 0.11834
H	-2.0212232221	 0.1954619372	 0.854409451	 0.125193
H	-1.354339738	 0.4215067761	-2.0391908967	 0.111667
H	-2.9428755095	-2.0181126103	 0.1287436217	 0.11562
44.772	98.5345	121.2374	177.7583	222.8712	304.2926	357.836	384.7479	573.2696	665.1443	816.0171	877.8608	902.6117	1048.7232	1056.1692	1099.1406	1121.231	1197.1099	1218.6135	1312.3079	1386.7991	1400.7565	1416.981	1419.6549	1499.513	1804.0748	1839.7121	2922.0447	2925.9167	3005.7996	3036.1368	3091.6263	3816.8765
OCC(C=O)C=O	OCC(C=O)C=O	
InChI=1S/C4H6O3/c5-1-4(2-6)3-7/h1-2,4,7H,3H2	InChI=1S/C4H6O3/c5-1-4(2-6)3-7/h1-2,4,7H,3H2
