14
gdb 2592	3.08314	2.77037	1.73427	6.0077	58.21	-0.2576	0.0258	0.2834	738.3162	0.114381	-320.728167	-320.720932	-320.719988	-320.759351	25.927	
N	 0.1968031672	 1.4444673768	-0.1157167871	-0.490718
C	-0.0726210548	 0.0288831404	 0.0958468954	-0.237391
C	 0.7780923749	-0.5169344553	 1.2323363631	 0.155938
C	 1.1569080098	-1.9614230537	 1.2293991131	-0.267362
N	 2.1728187325	-0.9402925018	 0.9639398784	-0.3219
C	 0.5909596221	 0.1416321821	 2.5114386479	 0.304429
N	 0.4068469267	 0.6324188223	 3.5411497561	-0.339096
H	 1.1273730831	 1.5882507173	-0.493833339	 0.233292
H	-0.4619288039	 1.8400972264	-0.7766868485	 0.238865
H	-1.13026654	-0.0772534331	 0.3624616811	 0.131203
H	 0.1025872375	-0.6194554981	-0.7823216288	 0.082683
H	 1.2684563827	-2.4828410441	 2.17427426	 0.147227
H	 0.7815537808	-2.5664724231	 0.4080089921	 0.125075
H	 2.3523908215	-0.874574966	-0.036311124	 0.237755
105.8026	163.7052	200.9266	244.9467	272.6006	369.3745	438.4009	575.5937	594.4668	674.7841	808.2476	849.2141	890.6124	932.8693	971.4336	1004.5732	1076.7894	1095.5126	1144.9406	1185.3557	1251.7574	1298.5006	1313.0469	1383.2174	1424.4895	1495.7872	1506.3101	1661.5761	2363.6787	2930.4097	3062.9143	3115.7367	3210.473	3484.6142	3509.93	3594.723
NCC1(CN1)C#N	NC[C@]1(CN1)C#N	
InChI=1S/C4H7N3/c5-1-4(2-6)3-7-4/h7H,1,3,5H2	InChI=1S/C4H7N3/c5-1-4(2-6)3-7-4/h7H,1,3,5H2/t4-/m1/s1
