15
gdb 1921	4.83714	2.98381	2.5468	1.6938	60.4	-0.2315	0.0033	0.2348	602.1921	0.125388	-308.474441	-308.468592	-308.467648	-308.503585	23.56	
C	 0.0348469814	 1.5385112734	 0.0678289542	-0.509077
C	 0.0097064726	 0.0394353067	-0.0253282374	 0.374683
C	 0.6516155468	-0.7998824309	-1.1819329492	-0.249383
C	 0.6464489173	-1.8027596547	 0.0067671625	 0.017625
O	 0.9256352651	-0.668679913	 0.8885497061	-0.314756
C	-0.8658396139	-2.0086282926	 0.2304661727	-0.080043
C	-1.3024827853	-0.7495743297	 0.2082795535	-0.114734
H	 1.0430590041	 1.9222437559	-0.1087879269	 0.129148
H	-0.6399216953	 1.9777675885	-0.6740408482	 0.122574
H	-0.2889295055	 1.8656440051	 1.0610089907	 0.133566
H	 0.051942215	-1.0251378819	-2.0664687151	 0.094296
H	 1.655980204	-0.4528192781	-1.4389978374	 0.10228
H	 1.3375035095	-2.6382951443	 0.106564239	 0.078794
H	-1.391585158	-2.9436318342	 0.3560534531	 0.108584
H	-2.2949533778	-0.3356840802	 0.3143898623	 0.106443
187.3089	288.3921	300.0201	472.645	534.3535	610.9276	622.4582	708.6938	747.9855	805.1019	842.6699	853.5441	888.9606	905.4068	924.4363	972.0708	1032.396	1050.5688	1080.8723	1115.5364	1178.4003	1210.4363	1239.5621	1260.4088	1295.264	1337.913	1415.2173	1478.6607	1485.9232	1494.4305	1621.54	3039.991	3057.7062	3109.2609	3120.1503	3130.471	3137.396	3226.6225	3255.3114
CC12CC(O1)C=C2	C[C@@]12C[C@@H](O1)C=C2	
InChI=1S/C6H8O/c1-6-3-2-5(4-6)7-6/h2-3,5H,4H2,1H3	InChI=1S/C6H8O/c1-6-3-2-5(4-6)7-6/h2-3,5H,4H2,1H3/t5-,6+/m0/s1
