16
gdb 3171	5.69268	2.31645	1.91871	1.4223	67.27	-0.2207	0.0178	0.2385	703.9577	0.138778	-288.627624	-288.621359	-288.620415	-288.658252	23.965	
C	-0.0756459509	 1.5062215061	 0.0037295147	-0.294973
N	 1.2331562847	 0.8306103188	 0.0013911441	-0.355518
C	-0.0090986555	 0.0223936361	 0.0066628833	 0.347661
C	-0.3035737803	-0.8544364697	 1.2322941005	-0.289277
C	-0.6532999327	-2.2580507382	 0.6620574351	-0.264346
C	-0.7305081414	-2.0342496882	-0.8305548339	-0.07462
C	-0.3871078851	-0.7934733481	-1.1757163684	-0.139689
H	-0.3131848545	 2.0338263274	 0.9246982131	 0.115304
H	-0.4137913589	 2.0075942332	-0.9006486788	 0.106683
H	 1.6315610898	 0.8476368206	-0.9354982467	 0.225416
H	 0.5594878662	-0.8722803283	 1.9009536864	 0.117887
H	-1.1491212704	-0.4485423666	 1.7957031892	 0.104928
H	 0.1086085563	-3.0096787423	 0.9067415658	 0.110434
H	-1.5969766827	-2.6426345604	 1.0664944306	 0.106757
H	-1.0241889616	-2.8160935459	-1.5221819215	 0.09452
H	-0.3530242532	-0.3985452645	-2.1861597035	 0.088834
38.7223	251.9228	306.8528	356.6341	502.726	521.1158	725.2318	760.9644	782.6345	820.2398	858.8823	901.9218	926.596	951.259	967.877	974.2848	1003.1251	1051.6483	1077.1932	1124.0633	1132.652	1174.6866	1235.9676	1264.3118	1280.2143	1292.7429	1327.7859	1349.7653	1415.634	1477.7779	1497.4493	1508.5751	1680.3198	3020.6981	3046.7723	3061.6962	3094.0004	3112.9345	3175.304	3177.7867	3203.7642	3481.7304
C1NC11CCC=C1	C1N[C@]21CCC=C2	
InChI=1S/C6H9N/c1-2-4-6(3-1)5-7-6/h1,3,7H,2,4-5H2	InChI=1S/C6H9N/c1-2-4-6(3-1)5-7-6/h1,3,7H,2,4-5H2/t6-/m0/s1
