14
gdb 2079	4.76846	2.61131	1.80081	3.93	53.53	-0.2295	0.0112	0.2407	679.5704	0.115865	-361.738091	-361.731932	-361.730988	-361.76832	22.587	
O	 0.0141346436	 0.0435551688	 0.4873514471	-0.320855
C	-0.0195862874	 1.1453443042	 0.0115987837	 0.395429
C	-1.3283554668	 1.9242770575	-0.1482543872	-0.306141
N	-1.3063399496	 3.125410703	-0.9774173224	-0.284254
C	-0.0719581309	 3.8685410878	-0.7456145129	-0.185844
C	 1.1561302451	 3.016788862	-1.0305882103	-0.062755
O	 1.1393379303	 1.7564131001	-0.3335395399	-0.223795
H	-2.0811424582	 1.2221395782	-0.5128944115	 0.144665
H	-1.6330000243	 2.1973493595	 0.8720414684	 0.147017
H	-1.3615765206	 2.8634875862	-1.9573944445	 0.223627
H	-0.0509176648	 4.7632720182	-1.3763584841	 0.116562
H	-0.0645255601	 4.2041027133	 0.2992929557	 0.122063
H	 1.2277383543	 2.8048061815	-2.1061463017	 0.110428
H	 2.0821005695	 3.5121806299	-0.7220784704	 0.123854
100.8769	153.1516	334.1586	414.081	476.424	505.904	550.4383	674.0095	764.4259	816.1436	897.7096	917.1363	991.5144	1014.377	1100.9123	1134.6772	1161.5717	1208.8515	1232.1165	1283.7226	1332.6038	1348.8634	1387.7374	1425.7018	1454.42	1479.7426	1488.0807	1510.7401	1844.6751	3014.6713	3019.3357	3031.9181	3080.5038	3087.4974	3114.2732	3505.8788
O=C1CNCCO1	O=C1CNCCO1	
InChI=1S/C4H7NO2/c6-4-3-5-1-2-7-4/h5H,1-3H2	InChI=1S/C4H7NO2/c6-4-3-5-1-2-7-4/h5H,1-3H2
