15
gdb 2435	5.33869	2.82285	2.42413	1.1259	59.95	-0.2393	0.0812	0.3205	601.6966	0.126184	-308.459279	-308.453652	-308.452708	-308.48816	23.1	
O	-0.0951160093	 1.336753107	-0.0672912665	-0.464579
C	 0.0483383591	-0.0351611345	-0.0398698485	 0.398912
C	 0.9436542215	-0.8970333551	-0.9261725519	-0.291892
C	 0.0500120269	-2.0811732838	-0.4512565121	-0.060611
C	 0.370845623	-2.2256175733	 1.0638663196	-0.227151
C	-0.2952492636	-0.8619978612	 1.2185439486	-0.13036
C	-1.0740821473	-1.0299084671	-0.0762155107	-0.123588
H	 0.5775494458	 1.7241104163	 0.5037503108	 0.284463
H	 0.7812803237	-0.6652481617	-1.982497266	 0.102605
H	 2.0188149694	-0.9565970874	-0.715625474	 0.080817
H	-0.0840581955	-2.9548834592	-1.0845400234	 0.072472
H	-0.2221537302	-3.0174067193	 1.5311676577	 0.098367
H	 1.4242276083	-2.3413317559	 1.347228593	 0.084097
H	-0.6277091255	-0.3568764322	 2.1172084382	 0.082367
H	-2.1240395064	-0.9359670725	-0.3097924049	 0.09408
261.967	319.558	361.677	427.1699	451.5543	609.0947	701.2746	750.2453	799.2892	834.9592	877.1275	918.1283	922.4629	956.5866	989.5886	999.0539	1013.7889	1068.2734	1097.2966	1124.9899	1139.2265	1168.0497	1195.6663	1220.8225	1256.101	1276.9018	1309.3866	1312.6994	1436.501	1494.6812	1509.4059	3020.2594	3027.5634	3086.4615	3097.4926	3141.7771	3190.1719	3230.7185	3790.5341
OC12CC3CC1C23	O[C@@]12C[C@H]3C[C@@H]1[C@@H]23	
InChI=1S/C6H8O/c7-6-2-3-1-4(6)5(3)6/h3-5,7H,1-2H2	InChI=1S/C6H8O/c7-6-2-3-1-4(6)5(3)6/h3-5,7H,1-2H2/t3-,4-,5+,6+/m1/s1
