14
gdb 1423	6.80451	1.37144	1.19942	3.0597	57.05	-0.2654	-0.0409	0.2245	945.7892	0.110468	-361.716824	-361.708768	-361.707823	-361.750142	26.639	
C	-0.0379629884	 1.4646172228	-0.1169414827	-0.393142
C	 0.0788734759	-0.04860627	 0.0170081879	 0.020058
O	 0.7149021432	-0.435189087	 1.2336328867	-0.192497
C	 2.0505214876	-0.6329262152	 1.2076488142	 0.132237
N	 2.6731361179	-0.8698380238	 2.2767159649	-0.435818
C	-1.279060073	-0.7484543932	 0.0046615346	 0.149845
O	-2.2143153817	-0.3735941005	-0.6496452545	-0.237398
H	 0.9471789567	 1.9216958883	-0.2404089084	 0.123746
H	-0.6581484175	 1.7032890362	-0.9838582047	 0.149013
H	-0.5088040664	 1.8842023353	 0.7758443339	 0.144574
H	 0.6408814677	-0.4616881533	-0.8378421451	 0.111409
H	 2.478371114	-0.5750364478	 0.1961863992	 0.088472
H	 3.6612108258	-1.0161682971	 2.081897301	 0.233767
H	-1.3188210117	-1.6526408247	 0.649107063	 0.105733
47.3503	79.3448	114.3488	200.8527	229.1676	260.2388	399.3651	426.0509	520.2578	677.7933	817.4299	852.951	907.5249	935.5185	1041.3938	1073.2389	1119.6706	1147.2911	1150.4912	1285.9384	1323.3566	1343.2533	1390.4883	1407.8351	1422.8013	1483.8377	1494.9484	1749.6941	1842.5512	2914.6721	2969.2644	3011.4532	3053.5142	3130.5148	3142.5581	3522.6741
CC(OC=N)C=O	C[C@@H](O[CH][NH])C=O	
InChI=1S/C4H7NO2/c1-4(2-6)7-3-5/h2-5H,1H3	InChI=1S/C4H7NO2/c1-4(2-6)7-3-5/h2-5H,1H3/t4-/m1/s1
