14
gdb 4935	5.06887	1.5023	1.16859	2.004	60.64	-0.1888	0.0345	0.2233	972.7003	0.107817	-415.881679	-415.874057	-415.873113	-415.913909	27.417	
C	-0.0027908759	 1.4047336506	-0.0273865888	-0.233766
O	-0.0135317712	-0.0198024775	-0.0292814475	-0.273689
C	 0.6078713969	-0.6187098348	-1.0571061106	 0.360907
C	 0.7368152974	-1.9525013509	-1.256159291	-0.1975
O	 1.4505966932	-2.1032888666	-2.4477468291	-0.183242
C	 1.684599106	-0.8492808401	-2.8562226046	 0.471907
N	 2.4404322161	-0.6929907092	-3.9899147204	-0.585559
N	 1.2122379997	 0.0881308623	-2.0862844333	-0.422401
H	 1.0193292121	 1.7951806709	 0.0024561009	 0.132001
H	-0.5046434757	 1.8080214901	-0.9125934003	 0.130194
H	-0.5415601567	 1.7016320465	 0.8738006577	 0.126761
H	 0.4353526726	-2.8471125516	-0.7470392743	 0.13849
H	 2.3724415098	-1.4536064213	-4.6499683054	 0.265456
H	 2.3432926857	 0.2191486117	-4.4097879533	 0.27044
59.8395	152.6733	208.9054	234.9166	301.4762	360.2925	402.1953	533.6698	580.4374	588.8372	637.4411	693.1775	758.2292	782.4198	979.178	995.9519	1082.4751	1106.6557	1141.2359	1179.5568	1207.4669	1243.058	1350.9675	1452.0202	1481.7745	1484.0934	1502.7792	1602.7694	1668.3288	1684.0696	3034.1146	3101.3242	3141.1033	3325.6286	3578.6167	3688.375
COC1=COC(N)=N1	COc1coc(N)n1	
InChI=1S/C4H6N2O2/c1-7-3-2-8-4(5)6-3/h2H,1H3,(H2,5,6)	InChI=1S/C4H6N2O2/c1-7-3-2-8-4(5)6-3/h2H,1H3,(H2,5,6)
