18
gdb 4911	5.08748	1.23392	1.06484	0.6264	75.53	-0.2074	0.0274	0.2348	1158.6506	0.153656	-347.849746	-347.841429	-347.840485	-347.882872	30.201	
C	-0.1120619518	 1.594687397	 0.0556995074	-0.364425
C	 0.1029886692	 0.0756276061	-0.0503993438	-0.300321
C	 0.7319349449	-0.5219184146	 1.1735066774	 0.276697
C	 1.9675346421	-1.076953827	 1.279050007	-0.1277
O	 2.2071035629	-1.5044069285	 2.5517036751	-0.182152
C	 1.0948359388	-1.2167483849	 3.2870157562	 0.380577
C	 1.1244057018	-1.5993056127	 4.7232781807	-0.488215
C	 0.166128173	-0.6166634727	 2.4952562098	-0.381863
H	 0.8402344113	 2.1132312902	 0.2035555826	 0.119915
H	-0.5795576368	 1.9884593779	-0.8524147133	 0.109764
H	-0.7592694436	 1.843956597	 0.9025921377	 0.118105
H	-0.8630556452	-0.4093647135	-0.2420651419	 0.10577
H	 0.731491001	-0.1434512911	-0.9212138695	 0.100829
H	 2.7638375632	-1.2414962075	 0.5712537729	 0.125554
H	 1.9405970865	-1.098528523	 5.2566132122	 0.136798
H	 0.1826439996	-1.3203032798	 5.2010094224	 0.133518
H	 1.2664270367	-2.6787413363	 4.8498631042	 0.136775
H	-0.8117252035	-0.2821716167	 2.8081108529	 0.100373
60.7176	118.4731	136.9658	196.1842	241.145	288.6879	379.7636	416.5675	575.2885	633.9968	669.9457	718.5594	740.6618	789.0043	811.843	941.9537	954.1177	1001.9328	1020.3271	1064.443	1066.4723	1091.2221	1161.7573	1172.3435	1235.0774	1287.417	1296.5783	1360.8075	1404.9512	1412.5686	1415.0487	1472.7891	1483.834	1490.9826	1496.3943	1506.6607	1589.6203	1660.765	3019.8052	3029.475	3035.3587	3059.0144	3079.1617	3105.9626	3110.6342	3128.4346	3244.1373	3269.3779
CCC1=COC(C)=C1	CCc1coc(C)c1	
InChI=1S/C7H10O/c1-3-7-4-6(2)8-5-7/h4-5H,3H2,1-2H3	InChI=1S/C7H10O/c1-3-7-4-6(2)8-5-7/h4-5H,3H2,1-2H3
