17
gdb 1544	5.08672	1.36845	1.14153	4.4484	65.64	-0.2412	0.0307	0.2719	1045.0942	0.147668	-305.906901	-305.898386	-305.897441	-305.939991	29.68	
C	 0.0287774992	 1.5580461263	 0.0288711862	-0.388003
C	-0.1225354235	 0.043013985	-0.0746626588	-0.112488
N	 0.7352176787	-0.4812783911	-1.135136969	-0.284286
C	 0.7399294557	-1.9350112401	-1.2741642343	-0.096245
C	-0.56904741	-2.5816922894	-1.7795096933	-0.395226
C	 1.8545235015	-2.3192756872	-2.1598478155	 0.27734
N	 2.7055831078	-2.6310545537	-2.876148369	-0.319983
H	 1.0725265734	 1.8295199417	 0.2076443374	 0.134273
H	-0.2954482751	 2.0495238081	-0.8955372837	 0.11652
H	-0.5839632982	 1.9518480768	 0.8449289026	 0.119317
H	 0.1945619669	-0.4255614859	 0.8660502543	 0.108261
H	-1.1896753084	-0.2085517436	-0.204764172	 0.086562
H	 0.5033744576	-0.0508171329	-2.0253797077	 0.22284
H	 0.9696474175	-2.3470420567	-0.2823043786	 0.131389
H	-0.8217824177	-2.2053016087	-2.7753500901	 0.131305
H	-0.4688294804	-3.6690187738	-1.840605167	 0.139044
H	-1.3908605353	-2.3499032247	-1.0977338216	 0.129381
73.0823	96.694	135.4714	211.5158	239.8933	252.2242	320.9383	352.0248	429.4907	563.727	573.7593	724.4942	814.3713	840.6034	897.5296	956.5916	1039.907	1070.7087	1101.4906	1132.592	1163.0933	1210.858	1291.3621	1328.5126	1339.1421	1396.1364	1405.7195	1417.709	1480.9611	1491.1866	1493.0707	1497.7217	1508.4598	1523.4223	2361.7427	2946.219	3026.542	3033.433	3038.887	3045.4885	3103.628	3120.77	3125.5883	3129.0162	3512.8521
CCNC(C)C#N	CCN[C@@H](C)C#N	
InChI=1S/C5H10N2/c1-3-7-5(2)4-6/h5,7H,3H2,1-2H3	InChI=1S/C5H10N2/c1-3-7-5(2)4-6/h5,7H,3H2,1-2H3/t5-/m0/s1
