12
gdb 1051	7.84504	2.13557	1.73916	2.8014	52.12	-0.2212	0.0114	0.2326	684.9652	0.090865	-360.527122	-360.520858	-360.519914	-360.558357	21.373	
C	 0.0501111884	 1.4040143191	-0.0189949673	-0.254281
O	-0.3061832901	 0.038297285	-0.2633506274	-0.26398
C	 0.4543577674	-0.627701271	-1.1289079785	 0.402795
C	 0.8644008563	-1.9186342978	-1.1856894491	-0.218569
N	 1.5676111769	-2.1076507858	-2.3734434779	-0.249191
C	 1.5555247795	-0.9549657633	-2.947919722	 0.07455
O	 0.8885536944	 0.0144524543	-2.2563575997	-0.18864
H	 1.0804023003	 1.4761884815	 0.3469374798	 0.132799
H	-0.0592012265	 2.0063363448	-0.925104338	 0.144225
H	-0.639981356	 1.7590356648	 0.7466233779	 0.14421
H	 0.7023253933	-2.7086950524	-0.4727034799	 0.126975
H	 2.005534996	-0.6551954593	-3.8805236278	 0.149105
29.5652	153.7618	212.6217	352.7975	481.3083	658.2017	668.3228	708.0709	794.6441	817.2103	930.0157	968.3218	1048.1622	1103.8406	1121.3195	1176.5996	1196.0412	1254.4707	1292.8109	1359.1539	1474.6778	1487.5023	1502.9304	1563.95	1672.4516	3032.0761	3107.9704	3153.2825	3279.3832	3283.4673	29.5677	153.7631	212.6218	352.7975	481.3083	658.2018	668.3228	708.0708	794.6441	817.2105	930.0159	968.3219	1048.1624	1103.8404	1121.3194	1176.5993	1196.0409	1254.4709	1292.8109	1359.154	1474.6774	1487.5018	1502.93	1563.9498	1672.4517	3032.0762	3107.9704	3153.2826	3279.3832	3283.4673
COC1=CN=CO1	COc1cnco1	
InChI=1S/C4H5NO2/c1-6-4-2-5-3-7-4/h2-3H,1H3	InChI=1S/C4H5NO2/c1-6-4-2-5-3-7-4/h2-3H,1H3
