12
gdb 1775	5.07172	1.96291	1.78753	3.5753	51.68	-0.2695	0.0013	0.2708	707.2662	0.088676	-360.495618	-360.488659	-360.487714	-360.526204	25.401	
O	 0.0590601727	 1.3664093196	-0.019903008	-0.422202
C	 0.0689871158	-0.013752361	 0.0402383775	 0.130629
C	-0.3995294182	-0.7490875825	 1.2667227334	-0.372187
C	-1.273485978	-0.7324520623	 0.0137323116	 0.173824
O	-2.3514207712	 0.1589647037	-0.0222916448	-0.449598
C	-1.4437373111	-1.9422721634	-0.7529208972	 0.25684
N	-1.5782153918	-2.9203168525	-1.3561872183	-0.338138
H	-0.8664743706	 1.6463497597	 0.0093025435	 0.302265
H	 0.8798741322	-0.4491963372	-0.5338908629	 0.13515
H	 0.0810247194	-1.682120146	 1.5379230262	 0.144297
H	-0.7687185298	-0.1488671123	 2.0917088054	 0.132677
H	-3.0366403196	-0.1496653959	 0.5814438836	 0.306444
146.9279	173.3407	261.4396	297.0271	331.6824	392.494	449.3632	494.137	573.7966	605.1756	709.3804	823.1114	874.3077	927.8923	1025.8546	1050.9147	1102.6676	1156.6308	1235.1892	1252.1192	1324.7404	1372.938	1427.73	1466.3593	2346.822	3136.9898	3176.535	3236.2581	3751.4408	3800.8247
OC1CC1(O)C#N	O[C@H]1C[C@]1(O)C#N	
InChI=1S/C4H5NO2/c5-2-4(7)1-3(4)6/h3,6-7H,1H2	InChI=1S/C4H5NO2/c5-2-4(7)1-3(4)6/h3,6-7H,1H2/t3-,4-/m0/s1
