17
gdb 3989	5.45788	0.7921	0.70068	0.8541	81.69	-0.2238	-0.0207	0.2031	1600.6745	0.139078	-363.807196	-363.797334	-363.796389	-363.843771	33.471	
C	-0.042171322	 1.5394014551	 0.0635230076	-0.364275
C	 0.0567898171	 0.0051664822	-0.0189322453	-0.324539
C	 0.7246880259	-0.460415407	-1.2278385878	 0.181712
C	 1.2829388949	-0.8064673728	-2.240903321	-0.045531
C	 1.9294712213	-1.3001093952	-3.4086758214	 0.202057
C	 2.077373567	-2.7912608687	-3.5975327452	-0.474865
N	 2.3589370524	-0.4259258765	-4.2528514295	-0.161427
O	 2.968696932	-1.0500967371	-5.3451111305	-0.395263
H	 0.9521022583	 1.9934977795	 0.0528634813	 0.132807
H	-0.6037228079	 1.9382048708	-0.7853093049	 0.132782
H	-0.5495396429	 1.8377066174	 0.9856163907	 0.115461
H	 0.5919174103	-0.377813701	 0.8600602605	 0.132729
H	-0.9489953825	-0.4326270718	 0.0298583599	 0.132708
H	 1.5905015824	-3.1026515142	-4.5270556704	 0.148347
H	 3.1353648773	-3.0549841435	-3.6929616773	 0.148353
H	 1.6416498494	-3.3346463801	-2.7595104341	 0.128918
H	 3.236648607	-0.297746717	-5.8834148726	 0.310028
19.1132	66.2989	73.3856	115.3742	189.4167	221.8403	291.1788	317.8965	399.4683	433.1958	478.2829	503.4359	572.8145	576.8354	740.9731	784.2472	898.4782	973.7907	1041.7099	1044.7851	1056.4736	1091.4241	1101.5086	1282.4935	1291.3977	1348.0341	1396.0483	1405.4182	1410.6478	1471.7397	1476.2776	1482.4619	1494.1745	1505.2811	1666.887	2346.3955	3016.3368	3042.4723	3046.6007	3047.5824	3105.206	3120.5393	3126.9622	3154.8033	3818.4519
CCC#CC(C)=NO	CCC#CC(=NO)C	
InChI=1S/C6H9NO/c1-3-4-5-6(2)7-8/h8H,3H2,1-2H3	InChI=1S/C6H9NO/c1-3-4-5-6(2)7-8/h8H,3H2,1-2H3
