14
gdb 532	16.26187	1.32932	1.25757	1.8394	55.5	-0.2594	0.0564	0.3158	894.418	0.117709	-270.393902	-270.386433	-270.385489	-270.425267	25.617	
O	-0.0453241433	 1.4434637613	 0.0101842283	-0.420768
C	 0.0281505036	 0.0272657858	 0.0019188306	-0.074009
C	-1.3963040438	-0.5113256588	 0.0125689488	-0.158771
C	-1.4352642064	-2.0511453714	 0.0047017701	-0.353681
C	-2.7916481391	-2.585094863	 0.014701965	 0.291526
C	-3.9179376734	-3.0044522089	 0.0231998919	-0.434523
H	 0.8505997659	 1.7924472309	 0.0035616332	 0.286552
H	 0.558872026	-0.341010004	-0.8921331756	 0.084893
H	 0.5757204059	-0.3504949189	 0.8817399403	 0.084893
H	-1.9151826509	-0.1319814053	 0.8986780563	 0.1206
H	-1.9318823356	-0.1225897986	-0.8594204946	 0.120601
H	-0.9038956755	-2.4290735155	-0.879221536	 0.129522
H	-0.8872463368	-2.4384568266	 0.8742868361	 0.129524
H	-4.9092318066	-3.384117487	 0.0307348156	 0.193642
89.4281	113.3132	123.5173	263.6448	282.4042	347.2859	404.6451	529.9898	615.3944	633.7566	755.8983	866.8656	951.5312	1020.1691	1042.0026	1087.0436	1119.3641	1212.2791	1231.2908	1299.5001	1304.2305	1311.8409	1375.1525	1464.7651	1475.4359	1498.8068	1527.6166	2240.7097	2953.2545	2978.0446	3011.7029	3039.24	3055.6425	3101.7043	3508.8502	3831.7555
OCCCC#C	OCCCC#C	
InChI=1S/C5H8O/c1-2-3-4-5-6/h1,6H,3-5H2	InChI=1S/C5H8O/c1-2-3-4-5-6/h1,6H,3-5H2
