15
gdb 4790	6.45564	1.30306	1.10156	3.6378	64.53	-0.1712	0.0591	0.2304	1037.3392	0.120237	-396.013551	-396.005634	-396.00469	-396.04575	29.007	
C	 0.0317371881	 1.3106135774	 0.2538795411	-0.33839
N	-0.0388019481	-0.0690886822	-0.1935922024	-0.371562
C	-1.2213308807	-0.7700223067	-0.062328199	 0.454383
N	-1.3055132648	-2.0849653159	 0.0286041607	-0.434329
C	-2.6519870364	-2.3497370474	 0.0618702843	 0.348559
O	-3.1003281745	-3.6221726179	 0.1570449322	-0.441847
C	-3.4010033078	-1.2121234632	 0.0005319104	-0.226726
N	-2.4447010646	-0.1839625472	-0.0677256195	-0.303078
H	 1.0618823542	 1.6595077108	 0.1592309139	 0.13759
H	-0.5812316172	 1.9525397359	-0.3903452434	 0.126074
H	-0.2943995024	 1.4569428367	 1.2953315205	 0.120661
H	 0.7457777481	-0.6451578626	 0.0739134777	 0.252883
H	-2.3128437996	-4.1787157042	 0.1727764668	 0.296658
H	-4.4576454347	-1.0200359194	 0.0238147181	 0.11964
H	-2.6412106396	 0.7938066858	-0.1843023911	 0.259484
68.5473	160.4341	212.047	253.6117	298.2883	356.5856	358.9596	422.6775	503.9273	563.3829	590.5026	689.3518	699.3761	745.9848	755.6247	999.9158	1026.9116	1078.3861	1103.3399	1151.9472	1178.3054	1195.982	1295.4411	1333.682	1399.5859	1426.1819	1465.656	1489.3853	1518.0091	1544.7776	1637.9888	1680.5684	2982.3159	3050.9226	3125.6227	3302.5208	3613.012	3688.5499	3809.4546
CNC1=NC(O)=CN1	CNc1nc(O)c[nH]1	
InChI=1S/C4H7N3O/c1-5-4-6-2-3(8)7-4/h2,8H,1H3,(H2,5,6,7)	InChI=1S/C4H7N3O/c1-5-4-6-2-3(8)7-4/h2,8H,1H3,(H2,5,6,7)
