14
gdb 2852	4.09485	2.3439	1.81015	4.2372	55.21	-0.2473	0.0124	0.2597	711.5797	0.112788	-361.694757	-361.687571	-361.686627	-361.726168	25.122	
O	 0.3143382717	 0.0298270575	 1.1693133612	-0.395818
C	-0.2763510559	 0.1506094516	-0.1068927406	-0.111262
C	-1.4572485282	-0.7784368692	-0.3396829179	-0.012624
C	-1.4937044165	-2.1744927379	 0.217537716	-0.253042
N	-2.358670168	-1.1409420987	 0.7356800873	-0.060637
C	-2.3145359474	-0.7032501383	 2.0536892062	 0.155633
O	-2.2049932142	-1.43290045	 3.0071968125	-0.297112
H	 0.7861543393	-0.8072441971	 1.2196076516	 0.295694
H	-0.6161928538	 1.1897196754	-0.1803244695	 0.128792
H	 0.4522336567	-0.0055712436	-0.9176122186	 0.108617
H	-1.9474428738	-0.6082848365	-1.2986600406	 0.104451
H	-1.9699196787	-2.9710273897	-0.3471870135	 0.130152
H	-0.6874313918	-2.4975301002	 0.8725081949	 0.121754
H	-2.4882032193	 0.3849955364	 2.133090171	 0.085403
82.6382	136.4018	198.2718	265.2586	281.1362	341.4476	417.4052	573.3655	672.7453	754.8782	875.955	936.3959	971.2771	1030.5968	1036.2112	1085.4222	1096.0249	1130.8127	1148.2013	1168.7413	1227.3658	1354.0442	1385.2198	1409.7877	1422.0793	1426.1014	1498.7631	1515.1675	1801.4008	2972.6818	2989.7728	3067.5131	3106.0327	3108.5622	3192.1328	3828.1882
OCC1CN1C=O	OC[C@H]1CN1C=O	
InChI=1S/C4H7NO2/c6-2-4-1-5(4)3-7/h3-4,6H,1-2H2	InChI=1S/C4H7NO2/c6-2-4-1-5(4)3-7/h3-4,6H,1-2H2/t4-,5?/m1/s1
