17
gdb 4020	3.22698	1.3992	1.10249	0.4104	73.29	-0.2469	0.0089	0.2557	1098.4306	0.138312	-363.794421	-363.784845	-363.783901	-363.828868	34.242	
C	 0.0133201126	 1.5861236009	 0.0076624697	-0.38336
C	-0.0542475065	 0.0488203989	 0.0182906025	-0.219634
C	 0.706227668	-0.5093061022	 1.1411873008	 0.339605
C	 1.3259262428	-0.9561561829	 2.0692625083	-0.494297
C	-1.4724409627	-0.5131831366	 0.0211145162	 0.365862
C	-1.6668799363	-2.0026267133	-0.0566318243	-0.46919
N	-2.4263293453	 0.3323667284	 0.0689569486	-0.164241
O	-3.6791026734	-0.3002277766	 0.0430707768	-0.401691
H	 1.0567501775	 1.9081541109	-0.0307871588	 0.116675
H	-0.5188613646	 1.9825685818	-0.8593255285	 0.125656
H	-0.4491352681	 1.998122918	 0.9062572298	 0.138432
H	 0.4189523547	-0.320095281	-0.9057909577	 0.117602
H	 1.8763760369	-1.350672188	 2.8871631546	 0.19889
H	-2.2893415819	-2.3478288551	 0.7741002359	 0.151271
H	-2.1997097591	-2.2656882564	-0.9766190132	 0.143472
H	-0.7124590647	-2.5298114806	-0.0269996864	 0.128956
H	-4.2834197098	 0.4477548536	 0.0946476158	 0.305991
52.9743	76.578	135.1737	197.7217	226.7849	242.4418	306.8573	311.6779	398.3021	415.4601	459.2789	543.538	551.4723	620.8068	643.6375	676.2966	775.7098	875.453	972.7837	1009.8946	1023.3683	1058.1319	1098.7864	1128.4564	1227.8452	1309.411	1324.0972	1394.1618	1402.9154	1410.1616	1472.2348	1484.1292	1486.6518	1494.6958	1733.0606	2233.1498	2979.3277	3046.0842	3058.6753	3104.2942	3135.2788	3144.6908	3145.2843	3503.8822	3820.2974
CC(C#C)C(C)=NO	C[C@@H](C#C)C(=NO)C	
InChI=1S/C6H9NO/c1-4-5(2)6(3)7-8/h1,5,8H,2-3H3	InChI=1S/C6H9NO/c1-4-5(2)6(3)7-8/h1,5,8H,2-3H3/t5-/m0/s1
