15
gdb 4969	3.31315	2.3351	1.38245	3.8083	70.3	-0.2317	-0.0141	0.2176	857.0763	0.12169	-358.91598	-358.908955	-358.908011	-358.946833	26.808	
C	-0.0559719317	 1.5314625815	-0.0147545054	-0.523198
C	-0.0177129024	 0.0294290469	-0.0073131183	 0.21235
C	-0.0041971701	-0.728136408	-1.1650976228	-0.04781
N	 0.0174046358	-2.0690852424	-1.1934489632	-0.277246
C	 0.0261824583	-2.6504671738	 0.0023578508	 0.06812
N	 0.0216630637	-2.0554525978	 1.1936003334	-0.321659
C	-0.0029967905	-0.7168172896	 1.1933445203	 0.326096
N	-0.0562702488	-0.1063351113	 2.4184402821	-0.565418
H	 0.8336696318	 1.96813653	 0.4593240344	 0.125981
H	-0.098921029	 1.9141929509	-1.0378271025	 0.134366
H	-0.9306186656	 1.9156166632	 0.5245009262	 0.137055
H	-0.0131700848	-0.2265592789	-2.1322590633	 0.102674
H	 0.0430635409	-3.7383564526	 0.0148041655	 0.110506
H	 0.1496935664	-0.7054280669	 3.2028655557	 0.261073
H	 0.2467273759	 0.8495404189	 2.4982964772	 0.257111
159.7564	184.1393	272.4289	286.1892	384.5137	419.3257	438.2988	524.6761	538.3805	602.3648	624.2122	770.0525	814.4396	910.5132	955.6266	1010.4833	1017.2711	1045.1477	1068.7869	1170.0191	1232.3596	1292.0733	1344.9864	1363.9857	1415.7057	1440.4831	1481.5074	1482.8759	1510.2425	1604.0651	1623.2227	1648.191	3009.7768	3059.4387	3111.1199	3134.1174	3155.2857	3593.3029	3716.3828
CC1=CN=CN=C1N	Cc1cncnc1N	
InChI=1S/C5H7N3/c1-4-2-7-3-8-5(4)6/h2-3H,1H3,(H2,6,7,8)	InChI=1S/C5H7N3/c1-4-2-7-3-8-5(4)6/h2-3H,1H3,(H2,6,7,8)
