11
gdb 897	7.18299	2.22298	1.69761	4.0805	49.23	-0.1871	0.0426	0.2297	665.4617	0.078724	-376.585	-376.578618	-376.577674	-376.615192	23.206	
O	-0.1337997535	 1.3314900294	 0.0110385835	-0.421839
C	 0.0598727093	-0.0011213175	 0.0027262298	 0.380853
C	 1.1375723957	-0.7971767748	-0.0077807374	-0.206917
O	 0.7009539096	-2.1293149072	-0.0124828751	-0.216515
C	-0.6745084905	-2.1391763585	-0.0044358671	 0.48373
N	-1.4470144983	-3.1429967199	-0.0050229845	-0.606219
N	-1.0619622817	-0.8115691685	 0.0046478063	-0.37503
H	 0.7205330364	 1.775528448	 0.0086561145	 0.31568
H	 2.1968760966	-0.621486313	-0.0131639402	 0.138422
H	-0.9098522879	-4.0060287896	-0.0125705618	 0.224517
H	-2.0189082458	-0.5078762884	 0.013072562	 0.283319
87.6765	263.2544	284.485	341.0707	363.7591	508.3622	573.8769	630.194	646.3222	713.3121	747.9274	752.7303	924.2761	1040.5236	1059.128	1089.3093	1172.6759	1239.1651	1308.7229	1363.4266	1518.3567	1736.772	1796.1136	3310.5039	3540.7073	3705.9131	3837.2267
OC1=COC(=N)N1	OC1=CO[C@@H]([NH])N1	
InChI=1S/C3H4N2O2/c4-3-5-2(6)1-7-3/h1,6H,(H2,4,5)	InChI=1S/C3H5N2O2/c4-3-5-2(6)1-7-3/h1,3-6H/t3-/m0/s1
