13
gdb 423	4.90898	3.93292	2.38617	2.556	50.49	-0.2421	-0.0238	0.2182	545.7113	0.107628	-286.484904	-286.478789	-286.477845	-286.514513	21.712	
C	 0.0547823135	 1.5869995409	-0.0308152985	-0.383973
C	 0.0250116705	 0.0683633731	 0.0444270697	-0.060948
N	 0.9531718307	-0.6563897329	-0.8744678372	-0.327103
C	 1.4863258123	-1.5222126471	 0.2107099965	-0.280639
C	 0.7538074199	-0.6186633889	 1.2156200949	 0.383309
O	 0.7691919699	-0.4729096063	 2.4002975908	-0.283417
H	 1.0840236095	 1.9524133823	 0.0169681169	 0.127965
H	-0.3899740087	 1.9390609615	-0.9667051288	 0.121093
H	-0.5105056329	 2.0156765866	 0.802587132	 0.130622
H	-1.0142363462	-0.2951183923	-0.0025033581	 0.093461
H	 0.4855386907	-1.1664462016	-1.6142975976	 0.22389
H	 1.105965305	-2.5534227116	 0.2356657027	 0.121884
H	 2.5790251458	-1.5506910437	 0.2821938268	 0.133856
117.4705	195.1737	200.519	366.3072	456.8069	543.3907	643.2077	723.4354	794.4733	893.5229	944.0619	1005.3904	1025.5813	1066.8373	1095.8799	1123.7095	1158.876	1224.7912	1297.7938	1348.5594	1367.2047	1402.7499	1474.9165	1484.1233	1495.7048	1914.9236	2976.8646	3007.7945	3040.4088	3069.2983	3112.1056	3123.9212	3547.3098
CC1NCC1=O	C[C@H]1NCC1=O	
InChI=1S/C4H7NO/c1-3-4(6)2-5-3/h3,5H,2H2,1H3	InChI=1S/C4H7NO/c1-3-4(6)2-5-3/h3,5H,2H2,1H3/t3-/m1/s1
