14
gdb 4513	3.68614	1.71952	1.17988	1.6675	60.16	-0.1651	0.0685	0.2336	943.548	0.106947	-415.874637	-415.866146	-415.865201	-415.907162	30.663	
N	 0.19430319	 1.4338816084	 0.0531548959	-0.615886
C	 0.0151056142	 0.0371493644	-0.009809537	 0.156189
C	-1.0842176282	-0.7837943894	-0.0433117275	 0.292414
O	-2.3714000401	-0.3168088057	-0.0175228905	-0.458096
C	-0.6483271362	-2.1457570273	-0.1068094927	-0.443762
C	 0.7299105669	-2.0980067696	-0.1094533349	 0.39562
O	 1.6839928702	-3.0645971643	-0.1568452375	-0.437038
N	 1.1315107591	-0.8067025482	-0.0521012688	-0.311732
H	-0.2225383847	 1.831618684	 0.8890381919	 0.241345
H	-0.2280341838	 1.9057824974	-0.740316035	 0.241341
H	-2.966588484	-1.070339149	-0.0499694349	 0.293289
H	-1.263478124	-3.0324474584	-0.1450335476	 0.07832
H	 1.2440221678	-3.9189185554	-0.1935164468	 0.304532
H	 2.0836077329	-0.485134427	-0.0408150245	 0.263464
112.9397	171.7189	192.0959	203.1762	251.1547	262.8346	309.341	319.2441	431.1013	533.8682	604.3231	649.1628	661.2705	665.6167	695.1805	783.5453	838.3049	1037.7097	1107.5711	1174.9904	1193.2714	1213.0732	1255.8815	1275.3723	1362.2696	1483.371	1543.9181	1598.5946	1661.2975	1691.6466	3232.5994	3490.2781	3546.8434	3689.3024	3849.8597	3851.4028
NC1=C(O)C=C(O)N1	Nc1c(O)cc(O)[nH]1	
InChI=1S/C4H6N2O2/c5-4-2(7)1-3(8)6-4/h1,6-8H,5H2	InChI=1S/C4H6N2O2/c5-4-2(7)1-3(8)6-4/h1,6-8H,5H2
