11
gdb 3688	7.5822	2.18673	1.71534	3.3509	48.02	-0.262	-0.0173	0.2448	676.4096	0.078737	-376.587043	-376.580822	-376.579877	-376.617925	21.523	
C	-0.0323961465	 1.4548375224	-0.034500555	-0.491446
C	-0.0622030788	-0.0291633771	 0.0253533613	 0.432544
N	-1.0280157589	-0.832194271	-0.3160438754	-0.387592
C	-0.4779359359	-2.0602839735	-0.0401182937	 0.435863
O	-1.1399406502	-3.1976342916	-0.2457894388	-0.398554
N	 0.7392018932	-2.04903503	 0.4384875249	-0.201436
O	 1.018810886	-0.6654882593	 0.4816708106	-0.196499
H	 0.7828866745	 1.796232256	-0.6792406042	 0.16221
H	-0.9811750021	 1.8199692042	-0.4266680651	 0.16298
H	 0.1350403111	 1.8754158174	 0.9615115754	 0.162219
H	-2.0064421824	-2.9605577075	-0.5983073502	 0.319712
34.6921	209.6488	294.8217	363.8647	411.8236	480.5567	641.9244	660.6791	772.1506	778.1827	926.0988	1003.2848	1043.5493	1068.1963	1082.9375	1220.6075	1323.2887	1408.7966	1448.1035	1474.2598	1475.5427	1610.8777	1678.4989	3055.4459	3115.2109	3165.4324	3813.0103
CC1=NC(O)=NO1	Cc1nc(O)no1	
InChI=1S/C3H4N2O2/c1-2-4-3(6)5-7-2/h1H3,(H,5,6)	InChI=1S/C3H4N2O2/c1-2-4-3(6)5-7-2/h1H3,(H,5,6)
