16
gdb 3186	4.51199	2.36551	1.91143	2.1557	59.89	-0.2438	0.0875	0.3313	718.4726	0.136575	-325.729335	-325.722286	-325.721342	-325.760247	26.119	
C	-0.0422815168	 1.5220317224	-0.0828720205	-0.460275
C	-0.016163477	 0.0096953632	-0.048731878	 0.382288
C	 1.1397295444	-0.7222421721	-0.5893867531	-0.218201
O	 0.9676551597	-0.5652974357	 0.8249550014	-0.273762
C	-1.3647477796	-0.6552406857	 0.0182394401	-0.045975
C	-1.5139828174	-2.0277572657	 0.5506141172	-0.24697
N	-1.9916472512	-0.8728867108	 1.3362438569	-0.327263
H	 0.9725084769	 1.9267235165	-0.0775494067	 0.127376
H	-0.5572306318	 1.8777719769	-0.9816306993	 0.125229
H	-0.5782416875	 1.9165362359	 0.786556344	 0.135044
H	 1.0072670188	-1.7359210766	-0.9630813418	 0.115133
H	 1.9770929083	-0.1712712798	-1.0158521509	 0.11506
H	-2.0655397446	-0.3100865407	-0.739877046	 0.090159
H	-2.2954123177	-2.6748679985	 0.1628968777	 0.11565
H	-0.6149961816	-2.5323289513	 0.8908913166	 0.126139
H	-1.2962166529	-0.6763730681	 2.0548528124	 0.240368
86.726	195.9343	219.2511	240.9547	346.4786	378.8465	484.6371	541.9964	685.7568	810.4625	855.1027	867.4369	917.8861	925.3172	973.6177	997.9904	1044.8985	1093.378	1117.8	1135.9192	1151.7392	1170.4099	1197.1573	1237.4542	1279.8165	1305.6814	1388.3948	1415.37	1426.9181	1482.7797	1495.3616	1498.0804	1526.3202	3038.5322	3084.5268	3103.0242	3115.8741	3124.2347	3127.3878	3174.323	3206.7504	3479.1782
CC1(CO1)C1CN1	C[C@]1(CO1)[C@H]1CN1	
InChI=1S/C5H9NO/c1-5(3-7-5)4-2-6-4/h4,6H,2-3H2,1H3	InChI=1S/C5H9NO/c1-5(3-7-5)4-2-6-4/h4,6H,2-3H2,1H3/t4-,5+/m1/s1
