19
gdb 3009	4.79857	1.58763	1.30339	1.3695	67.46	-0.2621	0.0794	0.3416	958.9579	0.170683	-310.904304	-310.895919	-310.894975	-310.93685	30.547	
C	 0.023496237	 1.4224717284	-0.1820639866	-0.391131
C	 0.0358791298	-0.0880608898	 0.0874624937	 0.020082
C	 0.7773256321	-0.416187679	 1.385139889	-0.073059
O	 2.1204429548	 0.0328349559	 1.263177476	-0.424784
C	-1.3671728632	-0.6644522026	 0.1194954289	 0.037288
C	-2.0718649753	-1.0312874135	-1.1611997368	-0.274493
C	-1.6167059338	-2.1146764822	-0.2139599743	-0.275235
H	 1.0399972266	 1.8218325616	-0.1858844505	 0.130347
H	-0.4464744542	 1.6434930942	-1.1451039869	 0.109271
H	-0.5438705098	 1.9503871976	 0.5943951562	 0.103624
H	 0.5888949934	-0.5808732962	-0.7247328164	 0.074857
H	 0.2692057198	 0.0771461391	 2.2313792559	 0.078312
H	 0.7367639556	-1.5015246816	 1.564961267	 0.085581
H	 2.5708520359	-0.1351506155	 2.0955422962	 0.285396
H	-2.0007763001	-0.2438122779	 0.8984306625	 0.075777
H	-3.1343367363	-0.8315383047	-1.245871444	 0.108881
H	-1.5232518336	-0.9108075956	-2.0899975859	 0.110751
H	-0.7649191098	-2.7181058481	-0.5117907208	 0.110285
H	-2.3676112889	-2.6575809401	 0.3495449569	 0.108248
88.7981	109.8406	173.1439	222.8987	240.4055	257.335	297.7436	416.0719	445.2875	483.9624	767.8965	819.7383	827.5783	881.9411	925.4137	937.8305	968.1915	1000.3404	1057.0233	1071.9878	1077.5491	1106.4578	1139.5708	1166.9076	1197.3418	1201.718	1225.897	1256.1732	1265.0311	1309.9115	1359.7639	1400.6055	1420.1619	1456.3109	1469.3382	1493.2083	1503.3005	1506.99	1520.2344	2955.2906	2992.5707	3012.9729	3030.1875	3095.2138	3119.3886	3126.2627	3129.8323	3131.9714	3204.092	3219.4459	3834.036
CC(CO)C1CC1	C[C@@H](CO)C1CC1	
InChI=1S/C6H12O/c1-5(4-7)6-2-3-6/h5-7H,2-4H2,1H3	InChI=1S/C6H12O/c1-5(4-7)6-2-3-6/h5-7H,2-4H2,1H3/t5-/m0/s1
