13
gdb 629	6.6552	3.12376	2.30532	3.0813	51.15	-0.2455	0.0075	0.253	562.6793	0.107159	-286.492357	-286.485815	-286.484871	-286.52312	22.044	
C	-0.0697974028	 1.4423186915	 0.0221072606	-0.472709
C	-0.0315872925	-0.0729327782	 0.062917228	 0.362551
O	 0.9350226914	-0.7312708232	-0.2471240511	-0.323942
N	-1.1967838395	-0.6569237927	 0.572682464	-0.071151
C	-2.4903483241	-0.6355644023	-0.0892128917	-0.233085
C	-1.7117515387	-1.9081538008	 0.072988183	-0.21216
H	 0.924934546	 1.8204116947	-0.2124505976	 0.146931
H	-0.7730934255	 1.7856341838	-0.7445003769	 0.136848
H	-0.411398138	 1.8445414949	 0.9797605274	 0.145843
H	-3.3496570208	-0.4310451916	 0.5437266923	 0.127521
H	-2.5445761136	-0.2079894212	-1.0880117936	 0.12764
H	-1.2242649326	-2.3242018739	-0.8044598562	 0.13821
H	-2.0138965693	-2.631990881	 0.8241577218	 0.127502
50.5246	112.914	219.7705	229.4185	420.574	589.8442	614.484	693.166	813.984	927.5757	970.2061	1007.4861	1048.1921	1061.0998	1125.2958	1132.392	1162.6676	1176.5877	1204.8031	1373.5285	1399.7516	1468.888	1478.452	1495.8511	1523.4307	1798.4178	3047.5918	3102.7021	3112.158	3117.2425	3163.0748	3187.4837	3207.7598
CC(=O)N1CC1	CC(=O)N1CC1	
InChI=1S/C4H7NO/c1-4(6)5-2-3-5/h2-3H2,1H3	InChI=1S/C4H7NO/c1-4(6)5-2-3-5/h2-3H2,1H3
