16
gdb 434	4.43292	3.8862	2.44563	1.7671	56.23	-0.2398	0.085	0.3248	585.5983	0.142555	-271.620997	-271.61422	-271.613276	-271.651656	24.15	
C	-0.2041975139	 1.5609980329	-0.0939877201	-0.404743
C	 0.003716312	 0.0531220339	-0.0348819669	-0.038905
C	 1.2489098381	-0.4903404716	-0.7701433229	-0.074116
O	 1.8731825615	-0.8832036588	 0.4671140874	-0.292177
C	 0.6846835112	-0.5557465427	 1.2276379265	 0.160881
C	 0.9907194827	 0.3022740818	 2.438841379	-0.400682
H	 0.7193239164	 2.1065209866	 0.12374678	 0.1235
H	-0.535072421	 1.8604767486	-1.09439433	 0.116941
H	-0.9670511982	 1.8910827128	 0.6190563581	 0.117351
H	-0.9245625895	-0.4582359129	-0.3032181111	 0.074049
H	 1.0664328606	-1.3489636718	-1.4302694077	 0.093764
H	 1.8482594037	 0.2514746376	-1.3140238415	 0.096251
H	 0.1818155211	-1.4784132424	 1.5547060612	 0.067467
H	 1.4889620055	 1.2338124808	 2.1585281797	 0.119793
H	 0.0718637528	 0.5441247742	 2.9842070713	 0.113511
H	 1.653096547	-0.2440635389	 3.1179288671	 0.127116
47.9268	207.8846	220.9352	266.7903	350.9962	373.0679	498.3516	742.3689	769.5632	873.7991	892.5718	921.3952	995.9245	1023.9706	1046.6862	1091.647	1129.7545	1158.7274	1168.0618	1200.885	1267.7499	1292.8637	1356.0069	1378.364	1385.2933	1409.3113	1415.3573	1478.2832	1489.9629	1499.531	1505.8619	1527.2018	2979.7997	3001.2219	3031.1942	3037.4843	3040.2844	3067.8732	3095.9381	3104.1471	3106.453	3122.8416
CC1COC1C	C[C@H]1CO[C@H]1C	
InChI=1S/C5H10O/c1-4-3-6-5(4)2/h4-5H,3H2,1-2H3	InChI=1S/C5H10O/c1-4-3-6-5(4)2/h4-5H,3H2,1-2H3/t4-,5-/m0/s1
