13
gdb 3797	7.63907	2.11279	1.67281	3.1349	55.69	-0.2128	0.0403	0.2531	710.3081	0.103609	-340.638326	-340.631969	-340.631024	-340.668795	22.691	
C	 0.0024812943	 1.4134941357	 0.034886671	-0.263824
O	-0.006834582	-0.0039522801	-0.0061356547	-0.25377
C	 0.6039925634	-0.6508946721	 1.003202317	 0.498757
C	 0.7398383181	-2.012361801	 1.1821842649	-0.358701
C	 1.4560289397	-2.1246278143	 2.3927983235	 0.017132
N	 1.7472410613	-0.9474630011	 2.9328305752	-0.254264
N	 1.2126798746	-0.0498957835	 2.0593748836	-0.282261
H	 1.0267530649	 1.8090365635	 0.0136483205	 0.128427
H	-0.5270403155	 1.7500312899	-0.8567829574	 0.150601
H	-0.5181641644	 1.7930019492	 0.9243279369	 0.128161
H	 0.3729954625	-2.7864489217	 0.5303457632	 0.107684
H	 1.7712867821	-3.0290407786	 2.8931489814	 0.110265
H	 1.3063786711	 0.9308334742	 2.252997265	 0.271793
66.858	212.7729	247.4947	314.234	421.5133	487.0296	665.1283	674.632	686.922	771.1804	898.3347	927.1129	1015.8503	1051.6097	1086.3576	1120.2202	1175.5449	1208.6567	1259.7367	1309.3901	1378.8567	1433.3054	1474.3993	1492.7205	1508.2624	1534.6299	1630.7632	2999.934	3059.1902	3145.6072	3240.5038	3282.6739	3697.7223
COC1=CC=NN1	COc1ccn[nH]1	
InChI=1S/C4H6N2O/c1-7-4-2-3-5-6-4/h2-3H,1H3,(H,5,6)	InChI=1S/C4H6N2O/c1-7-4-2-3-5-6-4/h2-3H,1H3,(H,5,6)
