14
gdb 3496	7.38326	2.05873	1.97375	1.7252	64.32	-0.233	0.0241	0.2571	679.8076	0.114205	-287.317913	-287.31208	-287.311136	-287.347273	22.88	
C	-0.0724588297	-1.2549664462	-0.1106159906	-0.433229
C	-0.0273572792	-0.0561471256	-0.0259267626	 0.33635
C	-0.0226103789	 1.3882959659	 0.0542558367	-0.15682
C	 0.0269472783	 2.1227294238	 1.4252989241	-0.060955
C	 1.4954859615	 1.6547181161	 1.4810417312	-0.177296
N	 1.3622064671	 2.107885785	 0.0109085545	-0.146515
C	 0.5863426478	 3.3000433229	 0.6044066007	-0.166604
H	-0.1035376256	-2.3139024723	-0.1850840479	 0.198159
H	-0.7097340653	 1.8128082929	-0.6846483242	 0.101309
H	-0.7347686459	 2.120869146	 2.21199217	 0.073714
H	 2.2025933093	 2.2615933086	 2.0516856219	 0.102598
H	 1.6966412436	 0.588560958	 1.5929294602	 0.121844
H	-0.0727741557	 3.7960865356	-0.113678714	 0.102526
H	 1.2326963527	 4.0165614893	 1.1158653701	 0.10492
169.059	178.4109	436.9295	487.825	530.8317	614.1985	629.3254	652.9863	755.0755	785.6285	835.1026	892.1817	907.7371	926.6919	1023.3483	1039.7258	1082.0739	1099.6403	1125.5535	1145.8629	1176.944	1201.7191	1230.3297	1240.9574	1280.1204	1385.7235	1513.0305	1549.0721	2231.8587	3044.8527	3054.639	3060.262	3072.7382	3125.5377	3141.5094	3502.8186
C#CC1C2CN1C2	C#C[C@H]1[C@H]2CN1C2	
InChI=1S/C6H7N/c1-2-6-5-3-7(6)4-5/h1,5-6H,3-4H2	InChI=1S/C6H7N/c1-2-6-5-3-7(6)4-5/h1,5-6H,3-4H2/t6-/m0/s1
