10
gdb 1020	9.771	1.98032	1.6466	1.6111	56.32	-0.2394	-0.021	0.2184	680.202	0.067486	-322.17057	-322.165034	-322.16409	-322.199819	20.24	
C	 0.0445624043	-1.1872057398	-0.0046768072	-0.416521
C	 0.0136627893	 0.015371231	 0.0025229298	 0.249836
C	-0.0351104961	 1.4278657349	 0.0111355903	 0.115828
C	-1.1303411889	 2.2378666432	 0.030415869	-0.110657
O	-0.705521318	 3.529615026	 0.0319929949	-0.131145
C	 0.6473595891	 3.4385277411	 0.0132995689	 0.073571
N	 1.1104279683	 2.2362664635	 0.0002746901	-0.296313
H	 0.0787992971	-2.2485135744	-0.0111279085	 0.196415
H	-2.1924401585	 2.0681894371	 0.0437354117	 0.160841
H	 1.1945062135	 4.3679979673	 0.0111842809	 0.158144
169.1749	175.7833	459.7865	531.0895	584.2385	588.3911	637.6821	669.543	707.5816	791.9861	850.6988	931.7284	983.5748	1094.9327	1137.3439	1240.2096	1252.9849	1335.5941	1561.7866	1587.4075	2244.3505	3279.7325	3303.4096	3504.0233
C#CC1=COC=N1	C#Cc1cocn1	
InChI=1S/C5H3NO/c1-2-5-3-7-4-6-5/h1,3-4H	InChI=1S/C5H3NO/c1-2-5-3-7-4-6-5/h1,3-4H
