14
gdb 931	5.88686	2.52653	1.78742	2.5781	65.39	-0.2489	-0.0177	0.2312	691.3554	0.115921	-287.507193	-287.501083	-287.500139	-287.538062	22.167	
C	-0.0147818728	 1.5255478944	 0.010394258	-0.494549
C	-0.0091300762	 0.0190995882	 0.0022538579	 0.312347
C	-0.0021516006	-0.7068825967	-1.1902558387	-0.189575
C	 0.0295661595	-2.0969188462	-1.1453374689	 0.014916
N	 0.0516333816	-2.8062783628	-0.0134731187	-0.271079
C	 0.0422505412	-2.1093094713	 1.1261966976	 0.014944
C	 0.0111275311	-0.7198092003	 1.1865971653	-0.189668
H	 1.0090988043	 1.9186190187	 0.0024674003	 0.142514
H	-0.5242196984	 1.9277116356	-0.869762719	 0.131616
H	-0.5070301825	 1.9182256031	 0.9044759283	 0.131511
H	-0.0239319112	-0.1955311701	-2.1477174194	 0.092457
H	 0.0330418768	-2.6707713381	-2.0695952527	 0.106046
H	 0.0560291493	-2.6931775385	 2.0440653415	 0.106047
H	 0.0000911977	-0.2189103261	 2.1497477986	 0.092474
27.4088	208.6067	337.8753	390.7407	500.9075	519.7563	683.7718	756.0449	809.6091	823.3871	898.2036	986.5712	1000.0732	1003.3961	1010.2977	1063.3166	1096.1915	1116.5872	1240.9351	1251.4075	1292.3048	1361.0877	1411.2464	1442.6963	1486.6257	1487.3947	1530.239	1605.141	1639.8837	3032.7849	3092.5451	3119.8707	3147.5168	3149.5866	3178.413	3180.8016
CC1=CC=NC=C1	Cc1ccncc1	
InChI=1S/C6H7N/c1-6-2-4-7-5-3-6/h2-5H,1H3	InChI=1S/C6H7N/c1-6-2-4-7-5-3-6/h2-5H,1H3
