8
gdb 326	10.85937	2.22469	1.84643	3.4458	37.46	-0.2606	-0.1455	0.1151	583.5476	0.045968	-341.097446	-341.091177	-341.090233	-341.128555	18.951	
O	-0.0741144673	-0.023151004	 0.0023794708	-0.190591
C	-0.0235794317	 1.1749392893	 0.0072122223	 0.079356
C	 1.3248093181	 1.931054761	-0.0004968656	 0.23498
O	 2.372554923	 1.3449790066	-0.0130249502	-0.218872
C	 1.2634412197	 3.4757472154	 0.008668848	 0.079357
O	 2.2578994749	 4.1458366911	 0.0031851498	-0.190592
H	-0.9389354286	 1.805293163	 0.0174010542	 0.103182
H	 0.247266492	 3.9258303976	 0.0204489006	 0.103181
46.1735	67.8571	212.7129	313.6634	426.2371	449.2723	732.8415	850.7025	894.9599	1024.4322	1044.2856	1408.5912	1428.3903	1807.9557	1819.7792	1850.9126	2884.7646	2913.8964
O=CC(=O)C=O	O=CC(=O)C=O	
InChI=1S/C3H2O3/c4-1-3(6)2-5/h1-2H	InChI=1S/C3H2O3/c4-1-3(6)2-5/h1-2H
