14
gdb 481	6.49682	3.64898	2.93229	1.8535	53.26	-0.2442	0.0955	0.3397	508.8551	0.119394	-270.401391	-270.39568	-270.394736	-270.430118	21.539	
C	 0.0514216119	 1.5460760744	-0.0056141247	-0.497582
C	-0.0720288679	 0.0642267683	 0.1324587384	 0.425613
C	-1.339661597	-0.8087827374	 0.0325440623	-0.28003
C	-0.6472631116	-1.847839607	 0.983091626	-0.234018
C	 0.5760029428	-0.9226977646	 1.0181825589	-0.030759
O	 1.0111553962	-0.7537134993	-0.3387358885	-0.286919
H	 1.0558004158	 1.8735918994	 0.2758764096	 0.133217
H	-0.1292892405	 1.8562847534	-1.0413708901	 0.12994
H	-0.6779473806	 2.0591775959	 0.6296184764	 0.122095
H	-2.2199157704	-0.3475787998	 0.4876091251	 0.102468
H	-1.5856861059	-1.1474757756	-0.9767537273	 0.106562
H	-1.152926702	-1.936198304	 1.9477019212	 0.103167
H	-0.4607959115	-2.8440442099	 0.5752211744	 0.110131
H	 1.3254040908	-0.8019909039	 1.7931656882	 0.096116
198.6622	223.283	309.053	367.332	486.275	630.3049	730.8065	772.5691	857.0827	885.7658	919.9956	954.8412	969.1331	1008.9311	1051.0555	1101.5591	1163.5615	1205.3974	1214.0474	1219.6541	1268.017	1284.6523	1403.7205	1454.5669	1464.2532	1481.294	1489.9704	1500.3218	3032.2158	3060.8673	3069.0331	3093.5543	3112.0399	3119.7201	3128.6569	3175.6676
CC12CCC1O2	C[C@]12CC[C@H]1O2	
InChI=1S/C5H8O/c1-5-3-2-4(5)6-5/h4H,2-3H2,1H3	InChI=1S/C5H8O/c1-5-3-2-4(5)6-5/h4H,2-3H2,1H3/t4-,5+/m1/s1
