14
gdb 1045	7.31556	2.06921	1.66088	1.5031	60.74	-0.1783	0.0405	0.2189	737.9509	0.114677	-324.594534	-324.587887	-324.586943	-324.625443	24.03	
C	-0.1133998617	 1.4333428783	 0.1328649055	-0.329148
N	-0.0527901205	 0.0435930031	-0.311374828	-0.383561
C	-1.1575938935	-0.7653700037	-0.1168898804	 0.429035
C	-1.3058754434	-2.1007616909	 0.1308988023	-0.301201
C	-2.7220116207	-2.3427811489	 0.1144175383	-0.155865
C	-3.3193958031	-1.1525405176	-0.125920387	-0.034727
O	-2.3652807534	-0.1711378192	-0.2729340839	-0.177694
H	 0.8205981458	 1.9280423238	-0.1432829383	 0.124052
H	-0.9325213334	 1.9415123966	-0.3791516603	 0.151613
H	-0.2662868952	 1.5433751484	 1.2172602684	 0.114338
H	 0.7969096842	-0.4268156504	-0.0351216025	 0.242367
H	-0.5171188381	-2.8151187697	 0.3034726545	 0.091156
H	-3.2201285644	-3.2869358209	 0.2718037882	 0.104226
H	-4.3392123626	-0.8201326388	-0.2113531669	 0.125408
57.1444	151.9752	209.4184	314.5549	444.498	584.1145	608.4166	658.4572	706.2411	729.332	741.6952	832.3978	898.1345	948.2982	1026.5979	1062.8468	1090.4842	1150.8393	1156.5559	1180.8649	1253.8661	1312.0613	1411.6623	1448.9053	1488.919	1490.1492	1515.5844	1573.2467	1654.9499	2988.516	3095.5655	3138.5932	3249.8646	3263.265	3297.1293	3602.0752
CNC1=CC=CO1	CNc1ccco1	
InChI=1S/C5H7NO/c1-6-5-3-2-4-7-5/h2-4,6H,1H3	InChI=1S/C5H7NO/c1-6-5-3-2-4-7-5/h2-4,6H,1H3
