18
gdb 2683	7.89908	1.01069	0.91643	2.8928	68.61	-0.2421	0.0279	0.27	1281.9666	0.158042	-326.971392	-326.962327	-326.961383	-327.005753	30.223	
C	-0.1938219875	 1.2677684256	 0.0932914849	-0.388684
C	-0.269001404	-0.0978964735	-0.595963958	-0.181483
C	 1.0868291989	-0.5062023022	-1.1886088694	-0.110368
N	 1.2094918958	-1.7754599027	-1.883167405	-0.232185
C	 0.2236242557	-2.5434552499	-2.0061653105	 0.130758
O	 0.3641684315	-3.7209129323	-2.6581677193	-0.195402
C	-0.8108683676	-4.514480984	-2.7417118605	-0.250066
H	 0.5359444901	 1.2588436018	 0.9103459655	 0.11821
H	 0.109234405	 2.0502096528	-0.6110943238	 0.118209
H	-1.1614839924	 1.556071601	 0.5146448727	 0.112972
H	-0.6029079951	-0.8541460564	 0.1262676057	 0.097891
H	-1.0277848381	-0.066195622	-1.3885973905	 0.09789
H	 1.4186326022	 0.274771539	-1.8876147491	 0.109295
H	 1.839445597	-0.505605193	-0.3872417877	 0.109293
H	-0.7923712239	-2.3666170937	-1.6293539622	 0.072691
H	-1.1797133747	-4.7980295475	-1.7478049874	 0.123322
H	-1.6107847347	-3.9976946494	-3.2870221922	 0.123325
H	-0.5350524581	-5.4172295136	-3.2883495131	 0.144331
46.0743	99.1134	123.7367	132.3077	156.2403	235.3406	275.789	293.8051	349.1618	482.3611	622.0073	748.1604	882.2264	892.9901	986.1958	1021.0517	1044.6298	1075.4893	1120.2655	1163.1597	1177.6506	1178.809	1273.3731	1284.3221	1322.5426	1328.4696	1397.6347	1411.8865	1422.8746	1477.5274	1487.7086	1493.374	1494.3465	1500.2336	1502.1948	1510.4996	1783.0263	3001.2297	3005.8889	3016.1107	3020.2762	3031.5077	3034.6606	3053.705	3068.7209	3098.2471	3104.5729	3141.1363
CCCN=COC	CCCN=COC	
InChI=1S/C5H11NO/c1-3-4-6-5-7-2/h5H,3-4H2,1-2H3	InChI=1S/C5H11NO/c1-3-4-6-5-7-2/h5H,3-4H2,1-2H3
