17
gdb 1486	6.65187	1.18922	1.08467	3.2998	61.58	-0.2432	-0.0202	0.223	1082.4836	0.145479	-346.866543	-346.857832	-346.856888	-346.900174	29.997	
C	 0.0651100849	 1.5460304856	 0.1212726137	-0.383167
C	 0.0043759795	 0.0225657845	-0.0115231883	-0.188077
C	-1.4282627272	-0.522347685	-0.0344081064	 0.124474
O	-2.1995066712	 0.0479561058	-1.0897775665	-0.426519
C	-1.4602961648	-2.0613461007	-0.1018045846	-0.294969
C	-2.8645244554	-2.6212125997	-0.0089138733	 0.154438
O	-3.1777105996	-3.5547401087	 0.6858488972	-0.243159
H	 1.0976444541	 1.9044675773	 0.0794947006	 0.114161
H	-0.5009806923	 2.0282883268	-0.6798323204	 0.127718
H	-0.365028003	 1.8741435618	 1.0737070281	 0.119402
H	 0.5126071757	-0.2972770736	-0.9337681876	 0.087476
H	 0.5485545764	-0.4521939463	 0.8139339194	 0.104739
H	-1.9426375943	-0.1970670568	 0.8793765715	 0.10025
H	-1.7409009906	-0.1316052268	-1.9189927125	 0.279029
H	-1.0370655167	-2.3741105557	-1.0694340208	 0.109852
H	-0.8514121043	-2.5141209759	 0.6863411115	 0.121709
H	-3.6099700714	-2.0951783723	-0.6425729216	 0.092644
57.633	87.9081	116.424	166.8397	219.6005	281.7581	325.2821	360.8248	434.6075	469.4468	547.1117	771.8006	816.2221	853.6233	940.5193	991.6895	1030.6561	1050.6661	1090.3547	1109.133	1153.8004	1199.0609	1262.6883	1276.7942	1339.8228	1353.4501	1386.5536	1408.2652	1416.3277	1424.892	1449.5481	1481.0056	1495.981	1508.2413	1829.7899	2911.4799	2995.7048	2998.537	3033.3313	3040.6257	3056.2682	3095.8654	3106.2085	3123.3981	3788.1167
CCC(O)CC=O	CC[C@@H](O)CC=O	
InChI=1S/C5H10O2/c1-2-5(7)3-4-6/h4-5,7H,2-3H2,1H3	InChI=1S/C5H10O2/c1-2-5(7)3-4-6/h4-5,7H,2-3H2,1H3/t5-/m1/s1
