14
gdb 4140	3.34953	1.83328	1.44992	0.5447	61.9	-0.2502	0.0068	0.257	860.4683	0.106886	-415.719865	-415.712848	-415.711903	-415.751065	26.838	
O	-0.1628706487	 1.3756939563	 0.0935516296	-0.397339
N	 0.0065370312	-0.0269818211	 0.0790852351	-0.313685
C	-1.099058195	-0.6203826587	-0.0175678982	 0.530072
C	-2.6114330875	-0.4509538589	-0.0355272719	-0.185154
N	-2.6075506674	-1.5940328578	-1.0482179669	-0.318113
C	-1.6069853229	-2.0465764202	 0.0118584963	-0.176359
C	-2.6089110407	-1.5327132212	 1.1156677476	 0.161345
O	-2.2104662324	-1.2516452031	 2.4137541587	-0.43317
H	 0.749123585	 1.6853679994	 0.1155471971	 0.30953
H	-3.2128303998	 0.4462559437	-0.1582514323	 0.10854
H	-3.4723496004	-2.1343944693	-0.9241393123	 0.217123
H	-1.055878975	-2.9821969348	-0.0559564755	 0.103168
H	-3.5366322644	-2.1101981353	 1.167505603	 0.098638
H	-1.3786475919	-0.760736649	 2.3838081497	 0.295406
98.0692	206.2062	269.3529	338.6849	356.9386	411.7381	440.2213	507.0429	587.1952	721.0232	749.2614	767.1095	850.0134	852.954	890.1037	952.3394	988.5496	1104.4129	1110.1204	1120.0235	1136.9688	1156.923	1171.4615	1232.97	1269.4352	1301.0765	1309.8319	1413.0357	1435.098	1831.5067	3081.9495	3150.7575	3161.1695	3361.6758	3765.1875	3817.0336
ON=C1C2NC1C2O	ON=C1[C@H]2N[C@@H]1[C@H]2O	
InChI=1S/C4H6N2O2/c7-4-2-1(6-8)3(4)5-2/h2-5,7-8H	InChI=1S/C4H6N2O2/c7-4-2-1(6-8)3(4)5-2/h2-5,7-8H/t2-,3+,4+
