13
gdb 4001	3.74173	1.12319	0.86856	0.8254	78.37	-0.2297	-0.051	0.1787	1266.4262	0.091713	-361.359729	-361.350685	-361.34974	-361.394687	30.82	
C	 0.0137066279	 1.4287153439	 0.0094538039	-0.504474
C	-0.0107626056	-0.0241869402	 0.0019259397	 0.106208
C	-0.0422686987	-1.2292648166	-0.0042154876	 0.006687
C	-0.0202596459	-2.6537634952	-0.012037564	 0.094673
N	-1.159601889	-3.2732985114	-0.0044487537	-0.172839
O	-0.9997886174	-4.6451565673	-0.0133228988	-0.371579
C	 1.2494826521	-3.3085588632	-0.0277115444	 0.346635
C	 2.3301156364	-3.8368984513	-0.0408988927	-0.499092
H	 1.0420739853	 1.8052961481	 0.0017348801	 0.156325
H	-0.4996539996	 1.8369358232	-0.8681553407	 0.156931
H	-0.482916053	 1.827489127	 0.9009279592	 0.156931
H	-1.9113410561	-4.9593991892	-0.0062802996	 0.315576
H	 3.2821304435	-4.3078688979	-0.0525575213	 0.208019
24.0285	84.8393	117.0784	157.1534	264.9446	290.9191	296.8707	394.4445	436.1927	486.335	488.8031	558.4644	622.9318	640.8848	698.0332	761.6977	963.2767	1047.972	1052.3683	1071.5213	1301.0802	1404.7022	1416.4173	1473.4775	1474.2816	1621.7889	2226.6675	2361.0781	3029.0052	3090.0673	3095.0807	3500.3449	3804.4324
CC#CC(=NO)C#C	CC#CC(=NO)C#C	
InChI=1S/C6H5NO/c1-3-5-6(4-2)7-8/h2,8H,1H3	InChI=1S/C6H5NO/c1-3-5-6(4-2)7-8/h2,8H,1H3
