13
gdb 4401	3.68695	2.06143	1.32307	5.2785	66.87	-0.2055	-0.0358	0.1697	853.2152	0.096748	-398.669423	-398.66274	-398.661796	-398.700053	25.797	
N	 0.0660943264	 1.3485674303	 0.1498731508	-0.556018
C	-0.0690201062	-0.0062926051	 0.0544410716	 0.475246
C	-1.2533130908	-0.6962736179	 0.0292974417	-0.287072
C	-1.1777011447	-2.1057898717	-0.0110893965	-0.019725
C	 0.0142393468	-2.7717039972	-0.0279631816	-0.296786
C	 1.2581044277	-2.0614461501	-0.0087700909	 0.421543
O	 2.3869592692	-2.4657682626	-0.0243328107	-0.343585
O	 1.1107514024	-0.6259236931	 0.0305483815	-0.260884
H	 0.969490014	 1.7210944052	-0.0976831688	 0.273527
H	-0.7279151606	 1.9142205426	-0.1003207843	 0.269215
H	-2.1966924142	-0.1690506042	 0.0499655368	 0.095355
H	-2.1027343013	-2.6746615374	-0.030267872	 0.113181
H	 0.0799146514	-3.8505167588	-0.0602295175	 0.116003
153.4501	188.0652	326.7469	392.5115	417.0238	436.4569	493.2298	530.9347	547.9859	698.3253	736.6585	740.2474	767.8692	821.9142	849.3486	1000.1758	1000.5216	1049.0223	1082.2364	1131.061	1190.2539	1339.34	1433.7363	1459.4975	1576.2088	1634.564	1669.556	1859.0326	3174.9803	3224.403	3229.6754	3596.384	3716.0413
NC1=CC=CC(=O)O1	Nc1cccc(=O)o1	
InChI=1S/C5H5NO2/c6-4-2-1-3-5(7)8-4/h1-3H,6H2	InChI=1S/C5H5NO2/c6-4-2-1-3-5(7)8-4/h1-3H,6H2
