15
gdb 1430	7.82841	1.34948	1.16775	2.6154	65.22	-0.2485	-0.0124	0.236	986.4866	0.124114	-341.865386	-341.857379	-341.856435	-341.897658	27.096	
C	 0.0045519754	 1.4508852576	-0.0193623564	-0.314242
N	 0.0303598188	 0.005619346	 0.0669365004	-0.234689
C	 0.4683831657	-0.6331872696	-0.9327357547	 0.113198
N	 0.5346098943	-2.0192359688	-0.9504729913	-0.082701
C	 0.08837272	-2.7757657078	 0.2141745464	-0.336587
C	 1.0189704252	-2.674869663	-2.0631698925	 0.167811
O	 1.116079809	-3.8734252077	-2.176449281	-0.320988
H	 0.6043356742	 1.8779149084	 0.7924906083	 0.131866
H	 0.381568762	 1.8478121656	-0.9757623767	 0.099584
H	-1.0214354011	 1.8090563161	 0.1229558088	 0.131868
H	 0.8295865071	-0.167693111	-1.8596863598	 0.099363
H	-0.9636522355	-2.5619263474	 0.4171348154	 0.146653
H	 0.2298648796	-3.8319524586	-0.00860304	 0.163258
H	 0.6695903421	-2.4848777774	 1.0922835834	 0.146838
H	 1.3159607231	-1.9670123824	-2.8592178505	 0.088769
104.5685	114.6825	173.5212	179.5985	220.5291	318.3743	328.594	404.5962	406.7907	499.3104	771.5939	889.5055	984.181	1029.6023	1039.4344	1099.5516	1139.6935	1155.1221	1161.8153	1306.3602	1366.3119	1422.0504	1444.7048	1447.7854	1455.4455	1479.0413	1486.9401	1502.0822	1513.0922	1748.864	1821.7329	2958.5025	2972.298	3028.5563	3060.8392	3061.8387	3079.0245	3124.9436	3178.1259
CN=CN(C)C=O	CN=CN(C)C=O	
InChI=1S/C4H8N2O/c1-5-3-6(2)4-7/h3-4H,1-2H3	InChI=1S/C4H8N2O/c1-5-3-6(2)4-7/h3-4H,1-2H3
