18
gdb 393	4.54162	2.61906	1.81897	1.0377	60.6	-0.248	0.0861	0.3341	743.1891	0.164188	-272.834623	-272.826448	-272.825504	-272.866669	28.45	
C	 0.0615057372	 1.5544186433	 0.0222507203	-0.384263
C	-0.0076895767	 0.0259386449	 0.0209061172	-0.170424
C	-1.4380998434	-0.5168722143	-0.0084111913	 0.159212
C	-1.47181013	-2.0439031567	-0.1174172362	-0.401172
O	-2.0735290332	-0.0613840606	 1.1822800604	-0.242532
C	-3.4797331365	-0.0739108547	 1.1481074413	-0.233562
H	 1.0971489076	 1.9032720897	 0.0782272407	 0.10727
H	-0.3811107789	 1.9712630707	-0.8897972134	 0.10659
H	-0.4853777636	 1.9602918179	 0.8766274957	 0.131719
H	 0.5325367677	-0.3776192841	-0.843891361	 0.090702
H	 0.4874972597	-0.3722336496	 0.9155417204	 0.102222
H	-1.9641530948	-0.0837403002	-0.8782618093	 0.057038
H	-2.4962723414	-2.4267971736	-0.1314689671	 0.113349
H	-0.9835297035	-2.3735908086	-1.0400731649	 0.112951
H	-0.9494395293	-2.495771218	 0.7319186462	 0.121584
H	-3.8290378963	 0.381273984	 2.0787805051	 0.124401
H	-3.871937419	 0.5109735535	 0.3007441943	 0.10111
H	-3.8971414454	-1.0897640835	 1.0837037315	 0.103804
77.928	109.1203	184.7627	212.7734	221.3703	270.257	302.5834	389.483	488.7688	492.8022	758.9431	826.6267	892.1139	972.9631	996.343	1032.8238	1119.6959	1131.5377	1148.7196	1180.9104	1195.7602	1231.6055	1305.8155	1328.748	1380.9525	1395.5214	1404.5382	1406.6368	1474.1661	1478.2473	1484.2135	1494.7472	1495.6158	1504.9579	1510.7223	1512.8369	2939.7946	2973.3574	3020.0436	3027.3242	3035.1968	3039.5519	3064.8695	3098.9201	3105.5099	3109.244	3114.2734	3126.6154
CCC(C)OC	CC[C@@H](C)OC	
InChI=1S/C5H12O/c1-4-5(2)6-3/h5H,4H2,1-3H3	InChI=1S/C5H12O/c1-4-5(2)6-3/h5H,4H2,1-3H3/t5-/m1/s1
