18
gdb 4773	5.4399	1.20254	1.06553	1.7346	76.33	-0.1691	0.0534	0.2225	1148.9617	0.155055	-344.022069	-344.01349	-344.012545	-344.055393	31.767	
C	-0.3018782783	 1.5112529919	 0.059244085	-0.362551
C	 0.1133275223	 0.0313073842	-0.0368950132	-0.298846
C	 0.8667268026	-0.4651608556	 1.1570480017	 0.335641
C	 2.2067422234	-0.7527220493	 1.3207192463	-0.304095
C	 2.4099877517	-1.1638196836	 2.6712757745	 0.263943
N	 3.6577850616	-1.4743521685	 3.252270529	-0.606103
C	 1.1841271554	-1.1166458847	 3.2978352138	-0.176536
N	 0.2585204089	-0.68338935	 2.3644558965	-0.301807
H	 0.5770312818	 2.1520940994	 0.1755884889	 0.12631
H	-0.8426938519	 1.826350113	-0.839138918	 0.109047
H	-0.9538762966	 1.6870212267	 0.9213471518	 0.108364
H	-0.78244455	-0.5838965318	-0.2015759924	 0.097707
H	 0.7444588595	-0.1116276863	-0.9198577975	 0.112564
H	 2.9651151207	-0.670105247	 0.5557439648	 0.077444
H	 4.2578103337	-1.9748051061	 2.6079485535	 0.23645
H	 3.5599262789	-2.0314824061	 4.0920679552	 0.23341
H	 0.8956151914	-1.3477031298	 4.310318725	 0.097565
H	-0.7231657852	-0.5690082065	 2.5425482153	 0.251491
39.8328	131.258	176.5974	199.7741	277.513	293.4329	336.2819	419.5946	441.9974	587.1387	623.6874	659.8048	686.5524	721.07	768.4057	782.2064	806.1338	946.7737	993.9402	1008.6283	1059.6943	1081.9025	1104.8739	1132.9101	1186.268	1265.6507	1312.8608	1328.124	1356.3513	1407.0829	1459.6805	1473.5738	1488.7178	1495.3099	1504.7224	1552.6257	1641.4382	1659.6323	3007.7912	3033.4382	3072.1175	3102.0622	3113.8842	3235.0488	3261.5103	3524.2624	3611.1936	3687.972
CCC1=CC(N)=CN1	CCc1cc(N)c[nH]1	
InChI=1S/C6H10N2/c1-2-6-3-5(7)4-8-6/h3-4,8H,2,7H2,1H3	InChI=1S/C6H10N2/c1-2-6-3-5(7)4-8-6/h3-4,8H,2,7H2,1H3
