16
gdb 471	5.20474	3.4934	2.76418	1.3247	55.74	-0.2601	0.0738	0.3338	550.8423	0.144785	-271.648392	-271.642208	-271.641264	-271.678618	22.879	
O	-0.2841245825	 1.4446088077	 0.3055452324	-0.440932
C	-0.004428639	 0.0710230875	 0.0295067529	 0.138964
C	 0.7107810063	-0.6017815626	 1.2118952839	-0.223549
C	-0.4218957182	-0.8061363426	 2.2300833034	-0.185474
C	-1.6115925853	-1.2692394057	 1.3591636882	-0.192685
C	-1.362433268	-0.6536359048	-0.0488940121	-0.198221
H	 0.555501061	 1.8909588684	 0.456031901	 0.277204
H	 0.5637233684	-0.0153159015	-0.9077106922	 0.053807
H	 1.1174357339	-1.5690796104	 0.8889114103	 0.092737
H	 1.5485207728	-0.0054415193	 1.5907583969	 0.080947
H	-0.1697897143	-1.516437673	 3.021991679	 0.088002
H	-0.6541431918	 0.1530168458	 2.7029020342	 0.10787
H	-1.6274813574	-2.3623587574	 1.2945503305	 0.094888
H	-2.5727531878	-0.9654036838	 1.7813282085	 0.098829
H	-2.131674582	 0.0652090021	-0.3399074778	 0.113343
H	-1.333787246	-1.4302277104	-0.818487309	 0.09427
38.3495	207.3274	312.7149	391.1714	414.6219	586.9543	725.7789	775.7852	846.9535	854.3686	892.3066	906.8067	939.8111	997.8737	1027.7359	1046.0434	1062.0605	1183.315	1201.9457	1209.2104	1225.3859	1280.934	1303.8614	1316.9483	1337.5131	1351.9626	1371.0083	1418.5331	1477.5679	1482.2702	1486.6362	1509.8488	2991.3681	3025.8906	3044.0302	3053.1164	3065.2619	3071.4506	3087.2349	3103.7659	3116.4144	3810.9526
OC1CCCC1	OC1CCCC1	
InChI=1S/C5H10O/c6-5-3-1-2-4-5/h5-6H,1-4H2	InChI=1S/C5H10O/c6-5-3-1-2-4-5/h5-6H,1-4H2
