17
gdb 1626	4.17995	1.883	1.39482	2.2998	61.24	-0.2706	-0.0384	0.2321	879.1915	0.145817	-346.869712	-346.861372	-346.860428	-346.902289	29.878	
C	 0.0534615154	 1.5265256089	-0.038241865	-0.388645
C	 0.0352253558	-0.0053105292	 0.0361670149	 0.014277
C	 0.7504862927	-0.4999425508	 1.3016857476	-0.404981
C	-1.4316627101	-0.5089740225	-0.0506028943	 0.060365
O	-2.089748569	 0.0327299377	-1.1641437516	-0.437839
C	-1.5181401453	-2.0220898894	-0.1023329776	 0.132415
O	-2.0442637115	-2.5926004278	-1.029328112	-0.265214
H	 1.0836555682	 1.8956256098	-0.0675197855	 0.10965
H	-0.4708806634	 1.8785368019	-0.927985443	 0.142863
H	-0.4343380294	 1.9643374661	 0.8411920174	 0.110633
H	 0.5572268367	-0.3978167474	-0.8469719337	 0.085038
H	 0.2027616551	-0.2050657746	 2.2048914193	 0.118328
H	 0.8773638332	-1.5863113736	 1.3251462285	 0.114778
H	 1.7485658489	-0.0560201769	 1.3669627899	 0.123482
H	-1.9418299848	-0.1990810403	 0.8821065243	 0.0878
H	-2.3969889183	-0.7294719944	-1.6806404647	 0.293637
H	-1.0876162642	-2.5845501775	 0.7477284255	 0.103413
66.571	104.789	206.4023	241.3826	254.4054	335.5169	345.6424	374.2771	407.3486	440.2775	502.2898	737.5796	809.9115	883.338	931.278	946.8614	973.6015	984.8137	1114.2387	1155.2527	1169.755	1189.6117	1267.2185	1303.8794	1345.0327	1364.5692	1392.7887	1404.1736	1423.4025	1441.5534	1487.9716	1492.5062	1505.7068	1515.3512	1805.1359	2921.7064	2958.7665	3017.4355	3029.1136	3033.8125	3092.545	3098.5476	3106.5303	3140.687	3682.8705
CC(C)C(O)C=O	CC(C)[C@@H](O)C=O	
InChI=1S/C5H10O2/c1-4(2)5(7)3-6/h3-5,7H,1-2H3	InChI=1S/C5H10O2/c1-4(2)5(7)3-6/h3-5,7H,1-2H3/t5-/m0/s1
