12
gdb 1236	8.33036	1.09416	1.00262	4.2762	64.11	-0.2903	-0.0509	0.2394	1082.9616	0.088846	-323.360471	-323.352878	-323.351934	-323.392392	26.035	
C	 0.0079338695	 1.5539107414	 0.0071072807	-0.395729
C	 0.0029582214	 0.0190498766	 0.0504668085	-0.043454
O	 0.7237558842	-0.4953800487	 1.1595387038	-0.399981
C	-1.3668889317	-0.5095852894	 0.0132926468	 0.157638
C	-2.4988527021	-0.9329603573	 0.0202563853	-0.0384
C	-3.7773776781	-1.4123884382	 0.0242018153	 0.21373
N	-4.8660442847	-1.8175867283	 0.0281454068	-0.332327
H	 1.0419218745	 1.9063169089	 0.0280133773	 0.139596
H	-0.4787957003	 1.9216190785	-0.900363567	 0.13893
H	-0.5246645181	 1.9647618298	 0.8706930893	 0.128066
H	 0.5362313516	-0.3631057178	-0.8284848153	 0.140346
H	 0.2776467738	-0.2090343256	 1.9651713485	 0.291584
91.562	106.6048	233.7346	237.8729	265.4615	315.7563	375.6535	516.8136	526.4421	579.3572	598.0106	693.6137	893.5164	1014.4225	1062.5451	1104.4038	1172.1797	1286.9966	1327.5202	1401.6514	1413.911	1487.8356	1490.2987	2261.7225	2399.6898	3041.8561	3046.4471	3119.9404	3135.3144	3797.8785
CC(O)C#CC#N	C[C@@H](O)C#CC#N	
InChI=1S/C5H5NO/c1-5(7)3-2-4-6/h5,7H,1H3	InChI=1S/C5H5NO/c1-5(7)3-2-4-6/h5,7H,1H3/t5-/m1/s1
