12
gdb 4230	5.08436	1.56992	1.5493	2.813	40.58	-0.2775	0.0719	0.3493	804.8743	0.085308	-492.008892	-492.001581	-492.000636	-492.041109	24.403	
C	-0.0202260754	 1.3784250507	-0.0086031468	-0.227307
O	 0.0050072978	-0.0325094878	 0.000349169	-0.228227
C	 0.6661935477	-0.5564122219	 1.1138478562	-0.190793
C	 0.6313170934	-2.0732962854	 1.0176187377	 0.273223
F	 1.2436059073	-2.516039092	-0.0842487168	-0.071238
F	 1.2630615191	-2.5985592251	 2.0809726894	-0.082054
F	-0.6195654327	-2.542598344	 1.0095541856	-0.071231
H	 0.9954940361	 1.8018716424	-0.0317175052	 0.112779
H	-0.5539374908	 1.683789486	-0.9105557597	 0.13987
H	-0.5443038676	 1.7800748174	 0.8720494483	 0.11278
H	 1.7219068892	-0.2458303442	 1.1581310577	 0.1161
H	 0.1839945958	-0.2677561559	 2.0610098145	 0.116099
73.0008	96.1566	165.6149	226.932	346.2355	357.6838	391.6506	537.0979	554.6968	675.0487	862.6154	991.1019	1012.3567	1160.732	1175.19	1199.4372	1206.6703	1240.383	1294.736	1311.8773	1444.8381	1481.972	1486.6946	1497.0685	1518.511	2974.9096	2985.8762	3019.295	3028.5041	3129.0507
COCC(F)(F)F	COCC(F)(F)F	
InChI=1S/C3H5F3O/c1-7-2-3(4,5)6/h2H2,1H3	InChI=1S/C3H5F3O/c1-7-2-3(4,5)6/h2H2,1H3
