9
gdb 899	7.22498	2.34498	1.77037	3.6671	40.61	-0.2319	0.0286	0.2605	618.2559	0.054586	-416.367317	-416.36152	-416.360576	-416.397228	20.117	
O	 0.0616330988	 1.3411812343	 0.007711151	-0.409316
C	-0.0583487457	 0.0148477764	 0.0012734952	 0.387163
C	-1.1138763146	-0.7952112873	 0.0032460297	-0.164399
O	-0.6316814269	-2.1107972781	-0.005928636	-0.210625
C	 0.7184708138	-2.06411542	-0.0136792348	 0.518866
O	 1.4715511085	-2.9815345779	-0.0224941038	-0.364049
O	 1.0969194248	-0.7287306947	-0.0090468438	-0.25111
H	 1.0001121993	 1.5661679124	 0.0001571853	 0.324911
H	-2.175598018	-0.645260965	 0.0101159773	 0.168559
94.0762	196.4463	350.1129	351.9964	574.7187	623.3416	656.744	670.1372	768.0053	772.1907	920.1311	976.3177	1078.0485	1110.8675	1202.3285	1316.6197	1393.8574	1805.0167	1950.691	3334.3519	3814.2743
OC1=COC(=O)O1	Oc1coc(=O)o1	
InChI=1S/C3H2O4/c4-2-1-6-3(5)7-2/h1,4H	InChI=1S/C3H2O4/c4-2-1-6-3(5)7-2/h1,4H
