12
gdb 4235	3.49806	2.41324	1.97382	1.7532	39.45	-0.2918	0.0719	0.3637	666.4632	0.085292	-492.026657	-492.019416	-492.018471	-492.058075	25.601	
C	 0.0247783288	 1.5650146401	-0.0072206788	-0.417761
C	 0.0281012045	 0.0381823657	 0.0459261373	 0.003042
O	 0.717021938	-0.4747603331	 1.1662765007	-0.421422
C	-1.3956581112	-0.525184505	 0.0290964098	 0.267055
F	-2.1058562	-0.0418727523	-1.0012531063	-0.077868
F	-1.404052792	-1.8565504388	-0.0574193452	-0.065583
F	-2.0423011578	-0.1892166755	 1.1646544384	-0.098041
H	 1.0543397073	 1.9270117821	 0.0309004842	 0.13574
H	-0.4469666041	 1.9279144173	-0.9234444481	 0.137753
H	-0.5232989198	 1.9781627	 0.8460770883	 0.12665
H	 0.5363905759	-0.3724282353	-0.8324424624	 0.120547
H	 0.2618275204	-0.1624018053	 1.957243892	 0.289889
74.8333	218.4327	221.364	252.1464	330.9106	349.1553	415.2553	475.6394	541.5284	576.1766	664.3912	792.5811	918.8017	1017.1558	1087.188	1131.8524	1180.9888	1223.551	1275.9608	1311.0381	1373.2088	1403.6712	1430.0163	1490.3464	1500.1784	3047.0812	3074.9988	3122.7568	3140.4826	3797.21
CC(O)C(F)(F)F	C[C@@H](O)C(F)(F)F	
InChI=1S/C3H5F3O/c1-2(7)3(4,5)6/h2,7H,1H3	InChI=1S/C3H5F3O/c1-2(7)3(4,5)6/h2,7H,1H3/t2-/m1/s1
