11
gdb 145	16.01056	3.17029	3.01951	3.147	44.1	-0.2486	-0.0157	0.2329	436.2586	0.090683	-231.145151	-231.140101	-231.139157	-231.173071	17.457	
O	-0.0755901341	 0.0231946052	-0.2304785675	-0.266724
C	 0.0426801281	 1.1720380007	 0.114793331	 0.171066
C	 1.2991656936	 1.9499353681	 0.077156122	-0.068169
C	 1.2041332295	 3.4414049085	-0.2189148146	-0.26216
C	 1.5232060172	 2.9928783831	 1.1649378427	-0.26216
H	-0.8310239595	 1.7515015456	 0.5037649694	 0.059684
H	 2.1599511863	 1.4077687304	-0.2970291468	 0.108837
H	 1.9914869516	 3.8639902891	-0.8316673826	 0.132265
H	 0.2167918268	 3.8480352446	-0.4119644526	 0.127553
H	 0.7558460568	 3.0902916265	 1.9259418693	 0.127551
H	 2.5367838037	 3.0974404882	 1.5333080597	 0.132259
135.2342	287.6358	331.7599	501.3439	775.3211	832.7866	848.0542	882.7873	952.199	1046.1844	1064.5258	1089.6378	1131.2064	1185.9831	1203.0879	1215.9116	1341.7619	1441.0036	1468.1663	1498.0906	1825.7515	2827.1748	3138.1123	3140.5721	3186.1632	3219.969	3234.7344
O=CC1CC1	O=CC1CC1	
InChI=1S/C4H6O/c5-3-4-1-2-4/h3-4H,1-2H2	InChI=1S/C4H6O/c5-3-4-1-2-4/h3-4H,1-2H2
