13
gdb 1116	5.68971	1.76256	1.37597	6.0988	52.35	-0.2467	-0.004	0.2427	837.6449	0.100878	-377.842223	-377.834389	-377.833445	-377.874949	26.787	
C	-0.1405115568	 1.5155622675	-0.0176649598	-0.502039
C	 0.1377288782	 0.0217059496	 0.0818667101	 0.417561
O	 1.2361565451	-0.4403934991	 0.2475912422	-0.297003
N	-1.0270512727	-0.7476187	-0.0281907865	-0.394448
C	-1.1057913679	-2.1513883271	-0.1332859829	 0.464685
N	-2.420586048	-2.5911023918	-0.0382258627	-0.565989
O	-0.1714884764	-2.8808713204	-0.3409598576	-0.328782
H	 0.790810442	 2.0534220667	 0.154275419	 0.158249
H	-0.5261557994	 1.7700885257	-1.0108834157	 0.145208
H	-0.8844223841	 1.8321778301	 0.7213060033	 0.13472
H	-1.8915759449	-0.2408274579	-0.140666027	 0.249614
H	-3.0447330741	-2.100053732	 0.5844798962	 0.250768
H	-2.4859231511	-3.5965251613	 0.0217280015	 0.267456
53.9096	93.2518	109.8986	186.9127	357.0829	401.295	418.4124	530.0163	541.3634	569.1342	602.9127	684.7428	772.3981	901.285	966.7417	1039.3596	1051.7963	1109.733	1218.4901	1316.0846	1384.7547	1467.7317	1483.9004	1511.1844	1626.7852	1815.9138	1877.4228	3040.2214	3102.7841	3166.8695	3570.3755	3622.5112	3685.1424
CC(=O)NC(N)=O	CC(=O)NC(=O)N	
InChI=1S/C3H6N2O2/c1-2(6)5-3(4)7/h1H3,(H3,4,5,6,7)	InChI=1S/C3H6N2O2/c1-2(6)5-3(4)7/h1H3,(H3,4,5,6,7)
