14
gdb 1073	7.09786	1.87907	1.53531	2.786	59.22	-0.2053	0.0423	0.2476	767.5661	0.115456	-324.604156	-324.597624	-324.59668	-324.63484	24.158	
O	 0.2730520396	 1.1247288876	 0.6760728399	-0.41472
C	 0.0282154295	 0.0445891493	-0.2174676317	-0.16132
C	-1.3763417241	-0.4780937085	-0.1318181294	 0.227227
C	-2.1743887977	-0.4582926891	 0.9929569667	-0.16998
N	-3.375907265	-1.0350231465	 0.6684286195	-0.231649
C	-3.3654959414	-1.425062529	-0.6460226301	-0.072951
C	-2.1393099491	-1.0900801914	-1.1701221997	-0.253877
H	-0.4224310333	 1.7733833758	 0.5224570054	 0.276211
H	 0.2556685076	 0.3241872788	-1.2590000342	 0.088086
H	 0.7576506925	-0.7249245833	 0.0643069791	 0.116868
H	-1.9763439094	-0.0858132269	 1.9845059151	 0.125866
H	-4.1543086316	-1.1371413902	 1.2952614617	 0.261147
H	-4.2257974401	-1.8955013976	-1.0942692066	 0.118212
H	-1.8169631274	-1.2614291389	-2.1864069458	 0.090879
63.2027	183.6937	265.0807	352.4532	444.5218	483.8938	635.1361	641.3279	691.7078	709.8655	777.1013	826.813	905.6372	965.2551	997.1054	1054.4609	1085.9221	1093.2855	1161.328	1202.8351	1258.1065	1295.3101	1360.1225	1410.8274	1435.7932	1465.6153	1508.9598	1519.4607	1604.4475	2970.9695	3039.4061	3239.9693	3268.1083	3272.1258	3685.9221	3803.6326
OCC1=CNC=C1	OCc1c[nH]cc1	
InChI=1S/C5H7NO/c7-4-5-1-2-6-3-5/h1-3,6-7H,4H2	InChI=1S/C5H7NO/c7-4-5-1-2-6-3-5/h1-3,6-7H,4H2
