16
gdb 2431	5.32142	2.85064	2.44073	1.6011	63.9	-0.2317	0.0969	0.3286	622.1287	0.138081	-288.578155	-288.572298	-288.571354	-288.607328	23.414	
C	-0.083176145	 1.4931693483	-0.0005268248	-0.496797
C	-0.0065395157	 0.0011892219	-0.0655098901	 0.35743
C	 0.8425417145	-0.8646032911	-1.0011815767	-0.282372
C	 0.0307192948	-2.0674917762	-0.4527058267	-0.081134
C	 0.4403227894	-2.080262912	 1.0273613458	-0.143526
N	-0.2473596187	-0.7606320859	 1.2195286014	-0.183283
C	-1.0702763073	-1.0322541472	 0.0015874937	-0.096269
H	 0.8661232967	 1.9181282907	 0.3452304337	 0.122921
H	-0.3045301108	 1.9185631936	-0.9853834057	 0.115768
H	-0.8638447872	 1.8067099725	 0.6976447997	 0.132988
H	 0.6007511629	-0.6465556629	-2.045231063	 0.102136
H	 1.9310219712	-0.8844580792	-0.8695807961	 0.089791
H	-0.1034166988	-2.9736082806	-1.0407231921	 0.071392
H	-0.08619918	-2.8305715031	 1.6233251299	 0.105872
H	 1.5098846973	-2.0956999034	 1.271158038	 0.092723
H	-2.1520896631	-0.9985757955	-0.024487267	 0.092358
193.0292	254.6193	304.958	439.7971	453.7754	605.5721	698.6681	749.8904	806.0827	834.5766	903.1424	916.1691	953.2402	975.9051	986.547	1007.9166	1025.4323	1036.6848	1107.8445	1140.7018	1150.4537	1166.4507	1189.6204	1228.0173	1248.1485	1291.9587	1311.7256	1394.7472	1433.896	1485.1378	1491.888	1495.536	1514.9504	3024.4081	3029.6792	3034.1385	3090.1005	3095.5243	3097.626	3117.1026	3130.2795	3194.5602
CC12CC3CN1C23	C[C@@]12C[C@H]3CN1[C@@H]23	
InChI=1S/C6H9N/c1-6-2-4-3-7(6)5(4)6/h4-5H,2-3H2,1H3	InChI=1S/C6H9N/c1-6-2-4-3-7(6)5(4)6/h4-5H,2-3H2,1H3/t4-,5+,6-,7?/m0/s1
