19
gdb 1539	5.08349	1.28041	1.08099	0.7621	73.74	-0.2569	0.0586	0.3155	1124.1845	0.169345	-273.762417	-273.753418	-273.752474	-273.795788	32.351	
C	-0.0780344438	 1.6004976437	 0.0528701209	-0.383392
C	 0.0192286314	 0.0732046001	-0.0124217467	-0.175918
C	 0.7768741902	-0.5164308745	 1.1822953626	-0.155079
C	 0.8176485297	-2.0643524846	 1.2162246428	-0.158802
C	 1.5955359474	-2.6741324195	 0.0318218199	-0.385129
C	 1.3778614441	-2.5273022118	 2.4858157344	 0.31849
C	 1.8582571249	-2.8936388795	 3.5255768328	-0.46577
H	 0.9166397333	 2.0598046064	 0.0614393266	 0.115889
H	-0.6227115078	 2.0024145214	-0.807065128	 0.112077
H	-0.598786743	 1.9257518913	 0.9602426983	 0.115826
H	-0.9908541257	-0.3569871918	-0.0486369809	 0.094817
H	 0.5080799015	-0.215912861	-0.9500987836	 0.1007
H	 1.8069880769	-0.1373134578	 1.1963498904	 0.102065
H	 0.310662615	-0.1664434327	 2.1108501106	 0.104666
H	-0.2203235102	-2.4238398316	 1.1586900912	 0.102348
H	 2.6281233586	-2.311191851	 0.0238311415	 0.123863
H	 1.6217297525	-3.7640657743	 0.1088288818	 0.12542
H	 1.1287550959	-2.4111423658	-0.9210488117	 0.116964
H	 2.2718641891	-3.2234540071	 4.4460221972	 0.190965
74.9772	99.9469	125.3646	199.6039	238.7395	251.2286	289.9751	323.068	407.1193	529.0949	543.9948	623.3935	630.5519	745.0138	817.0495	870.675	894.0615	945.8072	1002.7548	1031.9136	1067.1037	1122.6982	1130.726	1188.8345	1259.4309	1290.272	1324.904	1343.3316	1350.3579	1392.036	1406.9297	1414.5243	1480.9157	1493.6061	1496.0928	1500.1182	1501.6285	1510.9349	2233.0032	2995.8002	3015.1961	3026.5429	3031.491	3043.3039	3049.1419	3072.0333	3098.841	3103.1685	3116.875	3123.6431	3506.0448
CCCC(C)C#C	CCC[C@@H](C)C#C	
InChI=1S/C7H12/c1-4-6-7(3)5-2/h2,7H,4,6H2,1,3H3	InChI=1S/C7H12/c1-4-6-7(3)5-2/h2,7H,4,6H2,1,3H3/t7-/m0/s1
