15
gdb 2231	4.73868	2.80991	2.20635	1.3468	61.35	-0.2267	0.0207	0.2474	633.4838	0.125898	-308.509272	-308.503236	-308.502292	-308.538578	24.263	
O	-0.053827247	 1.3830859245	 0.0397382942	-0.468523
C	-0.0077333269	-0.0123415663	 0.0445839933	 0.400567
C	-0.3976892838	-0.7609042505	-1.2015650041	-0.336834
C	-1.3017841944	-0.7953221614	 0.0298818654	-0.117393
C	-1.0796219869	-1.9426867998	 0.9557026917	-0.067101
C	 0.1463310261	-1.9169475467	 1.4862379231	-0.079042
C	 0.9314986663	-0.7015808848	 1.0399322458	-0.331086
H	 0.6720142493	 1.7030592519	-0.5068920937	 0.281118
H	-0.7396491143	-0.1457002323	-2.0277820937	 0.109641
H	 0.1298479885	-1.6681541821	-1.4798371607	 0.108725
H	-2.2616004231	-0.295343096	-0.0296935402	 0.095875
H	-1.8275882711	-2.706050611	 1.1374306659	 0.093816
H	 0.5579143036	-2.6623452101	 2.1570013367	 0.093131
H	 1.8999256937	-0.9665313267	 0.5963909471	 0.102373
H	 1.1409032197	-0.0229150485	 1.8779249692	 0.114733
219.9127	280.3052	322.4136	385.0367	423.6547	492.328	590.1317	715.3055	744.4349	768.2077	859.7526	894.776	916.616	954.006	963.6446	990.8795	1001.2857	1041.5048	1064.3851	1068.4519	1141.7115	1152.9082	1241.8804	1250.0933	1302.0596	1323.8737	1375.25	1398.3403	1463.3061	1482.8131	1666.3608	3015.588	3046.5997	3117.9429	3179.038	3187.7914	3211.0903	3213.4355	3795.5052
OC12CC1C=CC2	O[C@]12C[C@H]1C=CC2	
InChI=1S/C6H8O/c7-6-3-1-2-5(6)4-6/h1-2,5,7H,3-4H2	InChI=1S/C6H8O/c7-6-3-1-2-5(6)4-6/h1-2,5,7H,3-4H2/t5-,6-/m1/s1
