9
gdb 3850	6.16459	3.00543	2.03465	1.5114	48.87	-0.281	-0.1263	0.1547	558.8121	0.054778	-371.491061	-371.485589	-371.484645	-371.520925	18.996	
N	-0.0463656953	 1.2931272734	-0.0569118948	-0.488317
C	-0.0331375768	 0.0377037407	 0.049713642	 0.458236
O	 1.1512907435	-0.6744431334	 0.1788896493	-0.263862
N	 1.1726125647	-2.1023426686	-0.0377073297	 0.084015
N	 0.0994463161	-2.6881995978	-0.1431462219	-0.102593
C	-1.117432346	-1.9625717843	-0.0066899832	 0.101014
N	-1.220562172	-0.6995893367	 0.0793010885	-0.201753
H	 0.9035944373	 1.6648487594	-0.0863362266	 0.244303
H	-1.9984877116	-2.5961944128	 0.0139289665	 0.168958
51.0977	294.2352	369.067	519.2908	565.5795	638.3923	674.1208	774.7205	844.3783	882.9426	961.7118	979.4327	1001.9852	1070.9486	1257.5269	1406.3096	1602.2576	1703.6565	1748.5978	3196.9701	3501.5086
N=C1ON=NC=N1	[NH]C1=NC=N[N]O1	
InChI=1S/C2H2N4O/c3-2-4-1-5-6-7-2/h1,3H	InChI=1S/C2H2N4O/c3-2-4-1-5-6-7-2/h1,3H
