17
gdb 2530	2.97259	2.07067	1.29638	1.3403	66.08	-0.2611	0.0549	0.316	933.0347	0.145877	-309.684774	-309.675988	-309.675044	-309.717777	31.119	
C	-1.5290979032	-0.2460222932	-0.0646301575	-0.389902
C	-0.0119913091	-0.1045687926	 0.0645640034	-0.168383
C	 0.761853164	-0.6263213441	-1.1677397769	-0.136318
C	 2.260463169	-0.2881826664	-1.0823081807	-0.09038
O	 2.3820972224	 1.1250854321	-1.076621325	-0.419164
C	 0.5908338151	-2.0651011969	-1.3554231557	 0.321671
C	 0.4714100201	-3.2543698235	-1.4877854143	-0.475983
H	-1.9072826196	 0.3215298674	-0.9224000769	 0.113657
H	-1.8185433587	-1.2922709272	-0.2026630515	 0.127792
H	-2.0343332192	 0.1298231612	 0.8303017299	 0.111461
H	 0.2630678657	 0.9452285859	 0.2001158147	 0.118316
H	 0.3406424771	-0.6468558447	 0.9506244397	 0.097375
H	 0.3748870144	-0.1083144473	-2.056986174	 0.111566
H	 2.6801764271	-0.7360402	-0.1683514357	 0.095767
H	 2.7816131487	-0.7328263997	-1.9423202587	 0.098353
H	 3.3092456797	 1.3479073036	-0.9553928787	 0.290407
H	 0.3559975263	-4.3020239646	-1.6163699522	 0.193765
92.0616	117.6301	148.4002	189.106	207.8264	249.5181	272.2472	339.3137	470.4475	517.6226	544.9599	625.5191	643.3447	764.2685	827.7562	950.4091	983.1282	1018.1471	1060.7571	1078.8145	1128.076	1159.2922	1230.0219	1254.0698	1281.2781	1320.4598	1353.7628	1367.555	1411.9661	1450.1846	1490.6694	1498.1232	1508.4131	1520.4545	2233.0152	2980.6927	3004.9123	3022.0859	3032.9797	3037.2219	3088.0476	3102.1521	3114.5228	3504.0852	3837.2877
CCC(CO)C#C	CC[C@@H](CO)C#C	
InChI=1S/C6H10O/c1-3-6(4-2)5-7/h1,6-7H,4-5H2,2H3	InChI=1S/C6H10O/c1-3-6(4-2)5-7/h1,6-7H,4-5H2,2H3/t6-/m0/s1
