16
gdb 2150	3.45709	3.24995	1.91266	1.7673	60.21	-0.2442	0.0254	0.2696	698.9116	0.13761	-325.800532	-325.793567	-325.792623	-325.831866	25.468	
C	-0.3549285028	 1.5388659623	-0.0573430882	-0.403318
C	 0.0729115492	 0.0815101185	-0.0563875288	 0.105321
O	 1.1244070232	-0.1024792446	-1.0514543276	-0.233506
C	 2.0803052124	-0.8336509656	-0.436797657	 0.115123
N	 1.9631926985	-1.1428041494	 0.7854201505	-0.271183
C	 0.70539655	-0.5136583461	 1.2477357943	 0.010989
C	 1.004053995	 0.4699439938	 2.3811887238	-0.386409
H	 0.4685494583	 2.1980111957	 0.2281579174	 0.129215
H	-0.6949886493	 1.8285117217	-1.0553318119	 0.129724
H	-1.1825733457	 1.6945314252	 0.6412732455	 0.123094
H	-0.7654613865	-0.5449452992	-0.3822240323	 0.091722
H	 2.9153005309	-1.103496473	-1.0749626235	 0.136569
H	 0.0529643682	-1.3005558149	 1.6417130093	 0.088035
H	 1.6817812919	 1.2639782915	 2.0541728098	 0.121444
H	 0.0878765057	 0.9298202703	 2.7643296204	 0.111315
H	 1.489954741	-0.0644563365	 3.2013758986	 0.131866
38.8223	228.7974	253.9416	275.8188	315.0426	378.1969	487.6355	574.0246	714.1617	754.0733	841.6309	852.4222	932.21	966.3381	1015.3651	1042.3309	1069.8683	1097.343	1136.1854	1163.1153	1178.2413	1297.5416	1323.2003	1348.9415	1372.2407	1385.4735	1409.6167	1415.0063	1478.023	1489.8194	1496.3137	1507.7039	1708.2486	3025.6227	3041.3169	3046.0042	3049.8567	3112.6416	3118.8582	3123.4959	3130.383	3207.721
CC1OC=NC1C	C[C@H]1OC=N[C@H]1C	
InChI=1S/C5H9NO/c1-4-5(2)7-3-6-4/h3-5H,1-2H3	InChI=1S/C5H9NO/c1-4-5(2)7-3-6-4/h3-5H,1-2H3/t4-,5+/m0/s1
