19
gdb 3975	3.90163	1.0552	0.94402	1.5631	71.09	-0.2409	0.0109	0.2518	1268.2619	0.161999	-402.163339	-402.153281	-402.152337	-402.198918	35.582	
C	-0.8906321657	 0.2466273652	-0.1631215366	-0.404891
C	 0.5724245496	-0.1063519613	-0.4312962269	 0.140185
O	 1.3081759001	 1.0467747945	-0.8317487221	-0.435965
C	 1.3305632139	-0.6553689357	 0.7903053284	-0.263049
C	 0.8012816954	-1.9668613819	 1.3159206563	 0.335519
C	-0.3147033753	-2.0094359653	 2.327851808	-0.467097
N	 1.3695803597	-3.0173838292	 0.8569412844	-0.159536
O	 0.802364822	-4.1875216986	 1.3907248783	-0.401212
H	-0.9677413753	 0.9884880167	 0.6386164482	 0.121702
H	-1.3510296504	 0.671620598	-1.0629669944	 0.105273
H	-1.4750536565	-0.6353871207	 0.1143889655	 0.123639
H	 0.6156287458	-0.8766267124	-1.2180101373	 0.077606
H	 0.8607167718	 1.4354649853	-1.5900116833	 0.27975
H	 2.3707526544	-0.7886533183	 0.4843074938	 0.127832
H	 1.3085718489	 0.1030589817	 1.5817868035	 0.10505
H	-1.164282128	-2.5858752687	 1.9472651592	 0.145444
H	 0.0226754215	-2.5269249127	 3.2323518574	 0.145523
H	-0.6530913982	-1.0081015368	 2.5972483872	 0.118995
H	 1.3371346765	-4.8746914598	 0.9799133105	 0.305231
38.8901	77.3369	80.9935	147.4769	250.0916	271.573	290.8732	292.9845	354.7876	371.7827	402.5043	447.0276	463.4836	556.6483	669.2284	819.5791	844.5947	896.2597	950.1134	987.5202	1016.1387	1035.8073	1082.4585	1106.973	1126.2825	1213.0617	1263.1487	1283.8532	1332.3864	1382.9793	1395.9775	1400.1803	1409.5948	1415.4735	1470.953	1479.7903	1481.8406	1496.3105	1498.6193	1721.1942	2973.2532	3028.0706	3040.8988	3044.6981	3092.4134	3094.8021	3111.1795	3116.7333	3140.4513	3817.0389	3822.9766
CC(O)CC(C)=NO	C[C@@H](O)CC(=NO)C	
InChI=1S/C5H11NO2/c1-4(6-8)3-5(2)7/h5,7-8H,3H2,1-2H3	InChI=1S/C5H11NO2/c1-4(6-8)3-5(2)7/h5,7-8H,3H2,1-2H3/t5-/m1/s1
