18
gdb 796	6.2683	1.20744	1.0926	0.7013	67.93	-0.2382	0.0178	0.256	1110.8362	0.157642	-326.951186	-326.942216	-326.941272	-326.984994	31.298	
C	-0.0137222393	 1.5557878291	 0.0155479867	-0.377246
C	 0.0296988648	 0.0258404873	-0.0054241583	-0.165493
C	 0.7405103353	-0.5605704862	 1.2288492398	-0.256006
C	 0.7642164555	-2.0662957953	 1.2437980552	 0.359306
C	-0.5192378172	-2.8387238541	 1.4014232204	-0.468369
N	 1.911537943	-2.6158580343	 1.1123189909	-0.16761
O	 1.8173901612	-4.0204784234	 1.1178076987	-0.40267
H	 0.995973695	 1.9798121095	 0.0436184311	 0.11799
H	-0.5169376765	 1.9510826796	-0.8722020174	 0.113331
H	-0.5513143719	 1.9250506264	 0.8960960702	 0.113962
H	-0.9922772189	-0.3685217568	-0.066867636	 0.098794
H	 0.5476420131	-0.3205133767	-0.9078619186	 0.107729
H	 1.7721986481	-0.1980977808	 1.2681261419	 0.113345
H	 0.2320648683	-0.2026710387	 2.135730726	 0.09977
H	-0.7735041185	-3.3628974653	 0.4735023461	 0.145073
H	-0.4042444229	-3.6084614701	 2.1698740284	 0.147726
H	-1.3498086048	-2.1819016675	 1.6680882197	 0.116368
H	 2.7407102556	-4.2821446126	 1.0421751152	 0.304001
66.6743	82.24	96.6684	152.8175	246.6307	290.4352	322.4711	353.8694	383.0622	421.6378	547.2029	653.8734	749.476	815.2617	877.7791	899.6006	978.7694	1017.3585	1028.4462	1046.9765	1113.27	1126.2106	1248.5816	1277.1418	1308.3331	1325.284	1378.2563	1399.2207	1399.8321	1412.7077	1473.2817	1476.5769	1484.5202	1493.4749	1499.4342	1509.655	1728.1418	3007.0977	3026.387	3030.6522	3042.1157	3056.9984	3087.2004	3100.0613	3101.0635	3104.0077	3132.0935	3823.951
CCCC(C)=NO	CCCC(=NO)C	
InChI=1S/C5H11NO/c1-3-4-5(2)6-7/h7H,3-4H2,1-2H3	InChI=1S/C5H11NO/c1-3-4-5(2)6-7/h7H,3-4H2,1-2H3
