14
gdb 265	8.4155	2.08732	1.72634	1.9371	50.66	-0.2654	0.0196	0.285	719.0142	0.117704	-307.614861	-307.607387	-307.606443	-307.647075	24.457	
C	 0.1734158726	 1.489397723	-0.0011879844	-0.391006
C	-0.0437914192	-0.0106731637	 0.051203062	-0.037668
O	 0.7443406762	-0.5278239766	 1.1416100347	-0.238762
C	 0.6718667208	-1.8609239535	 1.3377313869	 0.428925
C	 1.5380531881	-2.2763149682	 2.5033523611	-0.477319
O	 0.0009155392	-2.600218615	 0.6626820893	-0.351021
H	 1.2280582783	 1.7260276914	-0.1681195123	 0.128932
H	-0.4104218554	 1.9208925315	-0.8196909235	 0.122799
H	-0.1410104998	 1.9627806399	 0.9332497112	 0.128929
H	-1.0944126417	-0.2675886385	 0.2196009047	 0.121145
H	 0.2667175506	-0.5029362824	-0.8758510903	 0.121152
H	 1.4650328928	-3.3540251953	 2.6433918898	 0.147195
H	 2.57808272	-1.9930049314	 2.3182398051	 0.148344
H	 1.2180366874	-1.7588530213	 3.4122251459	 0.148354
52.2221	62.9957	151.2035	191.0823	259.3012	366.919	423.9175	607.3767	637.7571	807.6794	860.8494	947.9073	1010.358	1064.2105	1076.5712	1136.3187	1183.5531	1270.407	1290.9629	1386.4966	1402.0722	1424.0575	1469.7727	1476.2206	1485.9051	1496.5323	1520.8456	1824.1594	3045.8707	3051.0898	3056.9022	3088.5035	3120.029	3121.2897	3125.4647	3169.1308
CCOC(C)=O	CCOC(=O)C	
InChI=1S/C4H8O2/c1-3-6-4(2)5/h3H2,1-2H3	InChI=1S/C4H8O2/c1-3-6-4(2)5/h3H2,1-2H3
