12
gdb 628	6.85154	2.84394	2.33507	2.0825	46.79	-0.251	-0.027	0.224	553.6096	0.094448	-306.361448	-306.355078	-306.354134	-306.391783	21.502	
C	 0.210454729	 0.5124931263	 0.8462196315	-0.481914
C	-0.0854081768	 0.4039764903	-0.6342104716	 0.362346
O	 0.6080288387	 0.9043267159	-1.4900728214	-0.298472
C	-1.3245599118	-0.3514191369	-1.0399162739	-0.013348
C	-1.5663336827	-1.7326242023	-0.572275399	-0.172518
O	-2.2943099449	-0.6422325835	-0.030382672	-0.214599
H	 1.1692318339	 1.0120419695	 0.9863954182	 0.142672
H	-0.585832975	 1.082097791	 1.3367217827	 0.158321
H	 0.2267286305	-0.470608427	 1.3272420636	 0.140044
H	-1.7206887931	-0.0605968271	-2.0113617839	 0.119239
H	-2.1284123443	-2.4077039335	-1.2152754657	 0.132959
H	-0.8563036535	-2.2099569727	 0.1008196616	 0.125269
75.0309	118.0174	235.1172	265.3661	475.0533	500.3678	593.4188	739.0028	869.2538	908.1502	923.7666	1009.5451	1062.4032	1094.2801	1150.8646	1163.8241	1249.2747	1268.6322	1386.227	1389.6502	1454.3738	1469.0119	1524.8758	1809.1326	3047.0239	3090.9938	3107.7263	3137.1863	3159.1866	3181.1136
CC(=O)C1CO1	CC(=O)[C@H]1CO1	
InChI=1S/C4H6O2/c1-3(5)4-2-6-4/h4H,2H2,1H3	InChI=1S/C4H6O2/c1-3(5)4-2-6-4/h4H,2H2,1H3/t4-/m1/s1
