14
gdb 479	6.0133	3.92776	3.04795	1.6329	53.34	-0.2287	0.0868	0.3155	498.0795	0.119588	-270.392444	-270.386783	-270.385839	-270.421106	21.408	
C	 0.031132877	 1.5047185426	-0.0140419882	-0.483673
C	 0.0473970843	 0.0145847057	 0.0761138674	 0.477402
C	-0.8872225923	-0.8594560852	 0.8553660954	-0.324753
C	 0.6124006883	-0.9942829958	 1.0566668195	-0.173022
C	 1.2085735562	-1.6621345053	-0.1736151457	-0.082945
O	 0.5549129191	-0.7114660597	-1.0570382869	-0.320658
H	 1.0255054798	 1.8957002556	-0.2510361707	 0.126902
H	-0.658631407	 1.8321344756	-0.8004224581	 0.132406
H	-0.302811933	 1.942734581	 0.9309310551	 0.122282
H	-1.4093376583	-0.3762937133	 1.6757019563	 0.110807
H	-1.4480344243	-1.639660738	 0.3467615055	 0.111117
H	 1.0984800056	-0.8601516316	 2.0137183251	 0.096804
H	 2.2982558742	-1.5669947278	-0.2457459877	 0.10574
H	 0.9146438403	-2.6976042339	-0.385612157	 0.101592
198.1397	235.7147	313.7476	400.2306	444.7649	639.3825	746.1329	805.2348	874.2654	928.0475	950.1133	973.8508	991.8222	1000.2612	1039.4165	1070.7803	1113.0696	1135.7219	1170.317	1206.9175	1279.467	1341.4967	1384.7546	1426.0257	1473.2724	1485.535	1502.2899	1521.0235	3018.0673	3032.6833	3065.1428	3096.056	3109.8248	3116.4082	3197.1966	3205.8287
CC12CC1CO2	C[C@]12C[C@H]1CO2	
InChI=1S/C5H8O/c1-5-2-4(5)3-6-5/h4H,2-3H2,1H3	InChI=1S/C5H8O/c1-5-2-4(5)3-6-5/h4H,2-3H2,1H3/t4-,5-/m0/s1
