17
gdb 1978	4.49144	2.00149	1.83804	2.4305	60.71	-0.2487	0.0775	0.3261	774.6266	0.147939	-346.827596	-346.820264	-346.81932	-346.858807	27.341	
C	 0.3215963099	 0.7056418706	-0.4544432449	-0.240783
O	-0.1401341792	-0.4751601441	 0.168027768	-0.252197
C	-1.5545656564	-0.5332339147	 0.2944526779	 0.118624
C	-2.2483120143	-1.0059449974	-1.0175013114	-0.271161
C	-2.0863291164	-2.4707784717	-0.5078143435	 0.155436
O	-0.9360234462	-3.1221029807	-0.9974375449	-0.440982
C	-1.9203818033	-1.8926785041	 0.9293721472	-0.263196
H	 1.4118658121	 0.647258047	-0.4919791443	 0.130366
H	-0.0636709525	 0.8147929754	-1.4782845688	 0.111845
H	 0.0313931893	 1.5977139987	 0.1206537887	 0.110517
H	-1.9267263804	 0.3839766255	 0.7707968778	 0.062833
H	-3.2949371456	-0.6905094407	-1.0619421834	 0.100687
H	-1.7576918002	-0.7667832807	-1.9643981214	 0.103606
H	-2.9224287289	-3.1522876751	-0.6796936557	 0.079589
H	-0.1899287306	-2.5370213272	-0.8109048468	 0.282076
H	-1.1553451547	-2.3526443278	 1.5589224515	 0.110229
H	-2.8676531526	-1.8438272529	 1.4728413641	 0.10251
104.2347	143.2817	199.1636	268.2313	373.6543	391.0823	415.6631	466.3103	517.3788	756.3648	820.7754	847.0174	871.002	912.6446	951.4189	996.2852	1048.2234	1077.9205	1108.3067	1149.068	1165.0604	1181.2225	1189.1892	1240.4496	1249.188	1269.4582	1294.4522	1337.76	1376.1164	1447.2423	1452.5241	1475.6962	1481.6258	1486.8711	1509.2312	2984.3591	3007.6577	3035.5876	3056.3213	3065.5534	3088.3666	3116.3568	3118.2604	3127.5076	3763.5023
COC1CC(O)C1	CO[C@H]1C[C@@H](O)C1	
InChI=1S/C5H10O2/c1-7-5-2-4(6)3-5/h4-6H,2-3H2,1H3	InChI=1S/C5H10O2/c1-7-5-2-4(6)3-5/h4-6H,2-3H2,1H3/t4-,5+
