15
gdb 1306	3.41936	2.61726	2.22186	1.0703	57.48	-0.2523	-0.0288	0.2235	688.4755	0.122413	-345.661057	-345.653514	-345.65257	-345.692435	26.937	
C	-0.1866678203	 1.5675860859	 0.0950154819	-0.42186
C	 0.0017087838	 0.056947464	 0.0328899332	 0.289948
C	-1.2671917473	-0.691523169	-0.3557750009	-0.421857
O	 1.1288584324	-0.3107346702	-0.8263032594	-0.323053
C	 1.8977230787	-0.8917023187	 0.242295912	-0.193157
C	 0.7725950796	-0.5492906948	 1.2232332105	 0.306403
O	 0.5687484606	-0.6847074847	 2.3907528939	-0.279361
H	 0.7467514905	 2.0701733594	 0.3621660755	 0.125173
H	-0.5114216551	 1.942320969	-0.8807807192	 0.131321
H	-0.9465708033	 1.82574345	 0.8386294346	 0.133698
H	-1.6104157588	-0.3558683005	-1.3394428448	 0.131325
H	-1.0896696175	-1.7692154913	-0.403744247	 0.12517
H	-2.0596621211	-0.501109639	 0.3741507485	 0.133694
H	 2.0904934002	-1.9636995209	 0.1055614143	 0.131277
H	 2.8498954976	-0.3759731693	 0.422367637	 0.131279
103.8573	169.3237	174.4702	203.303	274.5912	340.6243	393.1253	507.824	534.9596	672.9759	703.7431	845.7856	920.4413	952.7481	973.3155	1016.8425	1017.5957	1048.6813	1138.1822	1176.8927	1214.6597	1277.3146	1296.4395	1393.0134	1410.3913	1470.7552	1477.7646	1482.3596	1493.3415	1502.3407	1919.8961	3013.6662	3038.4233	3042.2088	3057.6377	3112.8272	3116.9338	3120.1281	3123.605
CC1(C)OCC1=O	CC1(C)OCC1=O	
InChI=1S/C5H8O2/c1-5(2)4(6)3-7-5/h3H2,1-2H3	InChI=1S/C5H8O2/c1-5(2)4(6)3-7-5/h3H2,1-2H3
