12
gdb 3786	7.90839	2.00482	1.62366	4.3688	52.59	-0.2206	-0.0314	0.1892	717.2421	0.090623	-356.659922	-356.653641	-356.652696	-356.690236	22.158	
C	 0.0410191402	 1.4074774272	 0.1045731271	-0.332655
N	-0.1783711077	-0.0084114462	-0.1265249217	-0.373077
C	 0.5324114954	-0.6214074127	-1.1326625164	 0.321056
C	 1.2016542948	-0.1350167272	-2.2165285215	-0.058867
O	 1.6709988885	-1.187732206	-2.9151419699	-0.157414
N	 1.2857266258	-2.3394692056	-2.2271199729	-0.000606
N	 0.628645971	-1.9951895932	-1.2017044304	-0.204141
H	 1.0950439476	 1.6606520993	 0.2995345832	 0.119664
H	-0.2904401727	 1.9810988488	-0.7681637078	 0.137285
H	-0.5603403738	 1.727236309	 0.9575495199	 0.137791
H	-0.2414221256	-0.5790020257	 0.7038890423	 0.254557
H	 1.4126070766	 0.8459198722	-2.6022506519	 0.156408
100.5816	174.8854	206.2483	352.1212	445.918	539.0502	637.0304	713.4542	727.4444	749.9491	768.417	985.6193	1039.9332	1102.5702	1119.4433	1155.1849	1172.6706	1287.0297	1329.1073	1422.2668	1462.2956	1484.8484	1509.0847	1527.3893	1674.4912	2981.8778	3064.4505	3130.2176	3307.9421	3607.5887
CNC1=CON=N1	CNc1conn1	
InChI=1S/C3H5N3O/c1-4-3-2-7-6-5-3/h2,4H,1H3	InChI=1S/C3H5N3O/c1-4-3-2-7-6-5-3/h2,4H,1H3
