14
gdb 3145	4.10646	2.80198	1.94172	1.9062	59.26	-0.2453	-0.031	0.2143	671.0996	0.113689	-324.557383	-324.550994	-324.55005	-324.587751	23.522	
O	 0.0517475529	 0.1511753877	-0.6001814799	-0.313712
C	 0.0140460228	 1.2646799291	-0.1559497632	 0.341181
C	-1.0884060072	 2.1833734183	 0.4123371447	-0.345094
C	-0.0547168793	 3.3589950836	 0.3977090392	-0.323136
C	 1.0382430478	 2.3646039841	-0.0271752609	 0.25856
C	 2.4367064361	 2.1601295578	 0.4468028898	-0.286038
N	 2.1701790068	 2.5969964227	-0.9216630253	-0.35357
H	-1.9644849723	 2.2931314943	-0.2315863877	 0.135428
H	-1.424155704	 1.8767079461	 1.4071160029	 0.135428
H	-0.2615532838	 4.1129219394	-0.3643470006	 0.124636
H	 0.1065785261	 3.8537195147	 1.3568543944	 0.113865
H	 2.882154118	 2.9137016655	 1.0907965467	 0.13036
H	 2.7609025211	 1.1379060998	 0.6255828683	 0.132902
H	 2.2466351048	 1.8083798668	-1.5632883684	 0.24919
92.0716	192.3863	224.9454	317.7635	465.7004	522.1246	617.1109	715.1781	754.1349	810.8855	872.7386	915.6859	963.6757	986.5045	1016.2089	1048.0618	1080.7118	1101.0881	1128.2283	1187.2466	1212.4404	1238.9804	1271.3654	1290.3031	1395.664	1440.1786	1487.8507	1501.4204	1877.0101	3066.3088	3079.9859	3105.3851	3116.6516	3135.9636	3197.4638	3474.3101
O=C1CCC11CN1	O=C1CC[C@]21CN2	
InChI=1S/C5H7NO/c7-4-1-2-5(4)3-6-5/h6H,1-3H2	InChI=1S/C5H7NO/c7-4-1-2-5(4)3-6-5/h6H,1-3H2/t5-/m1/s1
