11
gdb 766	9.17106	3.66535	2.6282	1.7832	47.71	-0.2006	0.0347	0.2353	471.2006	0.088014	-281.489179	-281.48403	-281.483086	-281.517285	19.284	
N	-0.0286125077	 1.3779507841	 0.165603208	-0.586567
C	 0.0508093601	-0.0106475389	 0.047481809	 0.371922
N	-1.0515723044	-0.7548077777	 0.0156453728	-0.306768
N	-0.5883094128	-2.0303604702	-0.0185688263	-0.183817
C	 0.7599725494	-2.1021761151	-0.0238973159	-0.009241
C	 1.2253367919	-0.8056614969	 0.0208243416	-0.27168
H	 0.6622067641	 1.8647320024	-0.3893648484	 0.243684
H	-0.9576604014	 1.7137646185	-0.0548466688	 0.248521
H	-1.2501795763	-2.7851811797	-0.0422792364	 0.271651
H	 1.2792214546	-3.0474014492	-0.0534883445	 0.127237
H	 2.2517530824	-0.4780869372	 0.0448746688	 0.095056
256.2814	313.3441	397.2332	414.3309	646.0999	675.3304	704.5501	747.9064	785.4196	823.4588	941.0989	994.2838	1062.0061	1091.0385	1132.8875	1234.9766	1321.9204	1424.3476	1493.6936	1525.9579	1596.5653	1648.441	3253.6276	3273.5156	3542.7349	3638.1459	3694.6346
NC1=NNC=C1	Nc1n[nH]cc1	
InChI=1S/C3H5N3/c4-3-1-2-5-6-3/h1-2H,(H3,4,5,6)	InChI=1S/C3H5N3/c4-3-1-2-5-6-3/h1-2H,(H3,4,5,6)
