19
gdb 1999	5.8156	1.47446	1.27412	1.5085	67.91	-0.2587	0.0745	0.3332	988.001	0.170524	-310.907823	-310.899513	-310.898569	-310.940519	30.518	
C	-0.118014077	 1.4698153659	-0.1014269796	-0.402948
C	 0.0298092565	-0.0512184343	-0.0347552094	 0.141591
O	 0.9371771025	-0.5199875526	-1.030390158	-0.429229
C	 0.5717251171	-0.5194223968	 1.3185812729	-0.192598
C	 0.5577203837	-2.0215017324	 1.5060429215	 0.034095
C	 1.6748314271	-2.8755190935	 0.9690017	-0.236527
C	 1.5275262058	-2.6798762477	 2.4574713523	-0.284427
H	 0.847908132	 1.9552626241	 0.0719849133	 0.122629
H	-0.4835559857	 1.7836808149	-1.0862908328	 0.100945
H	-0.8307383856	 1.8325488631	 0.6466008664	 0.11344
H	-0.9624186223	-0.5101032419	-0.1890911294	 0.059732
H	 0.6022353962	-0.2450962593	-1.8895040802	 0.278397
H	 1.5974952112	-0.1417512266	 1.4209420754	 0.096866
H	-0.0210467674	-0.043350742	 2.1104720689	 0.090875
H	-0.4360711858	-2.4628055965	 1.4680468383	 0.073101
H	 1.4274081959	-3.8448126527	 0.5501578589	 0.103455
H	 2.4865721192	-2.3681087898	 0.4612576787	 0.120176
H	 2.2502449692	-2.0458008085	 2.9615918784	 0.105465
H	 1.1780671778	-3.5128828633	 3.0578367645	 0.104961
56.0535	106.2388	164.0382	245.9686	269.9999	307.2571	336.7096	393.1429	478.3524	485.9711	769.1415	797.6967	838.4168	852.6891	883.4542	939.5517	949.0244	991.3359	1045.1107	1064.8401	1072.462	1084.1518	1132.3385	1142.0262	1172.4693	1197.3043	1230.28	1248.7935	1308.4047	1320.1924	1383.4948	1405.446	1411.9199	1431.3886	1466.5905	1475.2394	1493.6127	1498.7786	1510.1498	2946.2587	3016.4752	3026.1173	3057.4489	3091.2201	3109.74	3124.3049	3126.6747	3141.1931	3205.3176	3227.7927	3818.6363
CC(O)CC1CC1	C[C@@H](O)CC1CC1	
InChI=1S/C6H12O/c1-5(7)4-6-2-3-6/h5-7H,2-4H2,1H3	InChI=1S/C6H12O/c1-5(7)4-6-2-3-6/h5-7H,2-4H2,1H3/t5-/m1/s1
