16
gdb 1538	5.2837	1.29556	1.09216	5.0868	61.31	-0.28	0.0362	0.3163	1038.6339	0.13567	-325.790444	-325.781991	-325.781047	-325.823588	28.981	
C	-0.0834658553	 1.5863989916	-0.0783321261	-0.390814
C	-0.0058495773	 0.0494713409	 0.0285484878	-0.146029
C	 0.7811384259	-0.4512544651	 1.2606753329	-0.16652
C	 2.2617093222	-0.0852027205	 1.2264406008	-0.086691
O	 2.8692216931	-0.7231359543	 2.3364352509	-0.41676
C	-1.3587946458	-0.5186133049	 0.0432033305	 0.26702
N	-2.4274133152	-0.9585989967	 0.061527115	-0.321504
H	 0.914929075	 2.0128094324	-0.2013665349	 0.127711
H	-0.6891836454	 1.8857461853	-0.9370079308	 0.139981
H	-0.5340095887	 2.0129503246	 0.8224740498	 0.139255
H	 0.4846975532	-0.3373123919	-0.8750973418	 0.126716
H	 0.3290690677	-0.0512774288	 2.1746276895	 0.124877
H	 0.7058778886	-1.5413857678	 1.3211438315	 0.131727
H	 2.7050302557	-0.4252537508	 0.2749039611	 0.087977
H	 2.3931555186	 1.0061810644	 1.2765567352	 0.093199
H	 3.7946163474	-0.4635890787	 2.3666897785	 0.289854
71.4663	99.7495	133.3017	203.918	242.0575	262.3292	308.0454	338.6581	420.417	556.4587	582.8249	792.0942	831.315	923.3623	973.9351	1024.0801	1054.6282	1099.568	1124.0866	1176.5191	1235.0665	1243.6573	1307.9243	1313.895	1338.0794	1369.3028	1414.5667	1463.8437	1489.0219	1496.7602	1503.8927	1528.9	2357.474	2957.1652	2998.123	3020.1933	3051.1687	3053.9325	3099.9136	3126.7164	3131.1938	3832.6245
CC(CCO)C#N	C[C@@H](CCO)C#N	
InChI=1S/C5H9NO/c1-5(4-6)2-3-7/h5,7H,2-3H2,1H3	InChI=1S/C5H9NO/c1-5(4-6)2-3-7/h5,7H,2-3H2,1H3/t5-/m0/s1
