14
gdb 2353	5.26268	2.14732	1.73114	2.7872	53.24	-0.2354	0.0295	0.2649	720.9691	0.114083	-361.727678	-361.720703	-361.719759	-361.759301	24.596	
N	 0.4834943329	 0.0626386762	 0.8215023291	-0.515664
C	-0.1593907691	 0.5424372985	-0.2712806336	 0.354773
O	 0.1979608972	 1.49637709	-0.9359644297	-0.372075
C	-1.4143050655	-0.2431383371	-0.641933467	 0.056656
C	-1.2977345836	-1.1387544914	-1.8971743275	-0.277555
C	-1.5660015346	-2.2995352281	-0.9183655587	-0.066499
O	-1.6712587456	-1.3893679889	 0.2049153806	-0.300478
H	 1.2981219015	 0.5411685757	 1.1669637361	 0.261703
H	 0.0843572098	-0.7132184377	 1.3240239471	 0.272019
H	-2.2584583727	 0.4553882036	-0.6468493905	 0.111441
H	-2.0672932622	-0.9749006547	-2.6512843449	 0.122405
H	-0.3177131069	-1.1306337901	-2.3745071973	 0.13094
H	-2.4999219891	-2.8502345867	-1.074235947	 0.112453
H	-0.7466542421	-3.0151522091	-0.7851445868	 0.109882
57.1672	87.0354	223.9246	293.6267	334.6061	464.3876	519.8963	645.0297	720.8141	768.6585	811.7042	852.9392	950.1367	979.1983	1027.8015	1054.9711	1091.4059	1097.1764	1166.6757	1210.6301	1251.1905	1258.2536	1329.493	1355.5488	1376.8656	1494.6476	1529.9674	1590.7397	1804.174	3028.8436	3050.3812	3073.3439	3095.1622	3151.0611	3593.2759	3735.994
NC(=O)C1CCO1	NC(=O)[C@H]1CCO1	
InChI=1S/C4H7NO2/c5-4(6)3-1-2-7-3/h3H,1-2H2,(H2,5,6)	InChI=1S/C4H7NO2/c5-4(6)3-1-2-7-3/h3H,1-2H2,(H2,5,6)/t3-/m1/s1
