17
gdb 2410	4.71494	2.30989	1.92259	1.5909	64.27	-0.2511	0.0733	0.3244	727.7872	0.148931	-309.663477	-309.656789	-309.655844	-309.693614	26.211	
C	-0.1568309655	 1.556042864	-0.0382558026	-0.444718
C	 0.0372933754	 0.046166246	-0.0139596694	 0.05291
C	 1.2201135675	-0.6542791243	-0.767777887	-0.105196
C	 2.1592112945	-0.1658370158	 0.3711756573	-0.228646
C	 0.8799796397	-0.667861282	 1.098647464	-0.10515
C	 0.9669799705	-1.9021937846	 0.1412608589	 0.195988
O	-0.1058352609	-2.7749036605	-0.0606087988	-0.450298
H	 0.7634940293	 2.1194440937	 0.1316585799	 0.1208
H	-0.5628971307	 1.8718793563	-1.0057410469	 0.118205
H	-0.8760310202	 1.8595909638	 0.7307002029	 0.118225
H	-0.9426020001	-0.4144467067	-0.195850039	 0.035725
H	 1.4197736785	-0.6433475841	-1.8409559181	 0.067889
H	 3.071133049	-0.7478113878	 0.5331127535	 0.092049
H	 2.3711774313	 0.9008436999	 0.4175879301	 0.099133
H	 0.6882063676	-0.6725364837	 2.1733101574	 0.06788
H	 1.8397516846	-2.5415941507	 0.2956665567	 0.080656
H	-0.9110614204	-2.2677172236	-0.2037546887	 0.284548
176.194	207.2794	257.698	270.8301	389.1576	399.1955	546.9432	620.9943	755.5965	778.9526	787.4376	857.254	882.0928	895.8593	1005.7894	1015.193	1016.6758	1064.31	1087.0653	1111.0167	1117.6348	1130.6048	1170.6444	1187.0008	1204.8174	1247.2525	1248.3768	1273.905	1281.4843	1413.8122	1431.6271	1459.9613	1497.024	1498.8057	1534.0365	2999.4754	3034.6303	3063.2946	3083.0752	3088.993	3093.5371	3102.0647	3118.2594	3149.006	3818.3765
CC1C2CC1C2O	C[C@H]1[C@H]2C[C@@H]1[C@H]2O	
InChI=1S/C6H10O/c1-3-4-2-5(3)6(4)7/h3-7H,2H2,1H3	InChI=1S/C6H10O/c1-3-4-2-5(3)6(4)7/h3-7H,2H2,1H3/t3-,4+,5-,6-
