14
gdb 2793	4.90412	1.98677	1.51964	2.6721	54.32	-0.2491	-0.0327	0.2163	775.8725	0.113407	-361.695007	-361.688047	-361.687102	-361.726474	24.688	
O	-0.0028882342	 1.4034979129	-0.1856035863	-0.41761
C	 0.0100523062	 0.0887311156	 0.3271583978	-0.047859
C	-1.3458346124	-0.5813188846	 0.0814893359	-0.117368
N	-1.7101908523	-0.5607150573	-1.3710604026	-0.33986
C	-1.8422864454	-2.0463190119	-1.4385622484	-0.28586
C	-1.3683971566	-2.1185205036	 0.023633218	 0.378266
O	-1.1067581884	-2.9968707263	 0.7880943566	-0.279037
H	-0.2532899474	 1.3092846012	-1.1144615151	 0.287279
H	 0.8070043355	-0.5155922235	-0.133861017	 0.090198
H	 0.2149880641	 0.1525358531	 1.3996781865	 0.122025
H	-2.1059202239	-0.1529833107	 0.7467008262	 0.104405
H	-2.5871254234	-0.0858369556	-1.5478193946	 0.233114
H	-2.861767538	-2.427525684	-1.5770907119	 0.13187
H	-1.1886773139	-2.5230884854	-2.177008765	 0.140436
86.528	100.9627	157.4856	303.5196	389.054	496.8598	505.5721	562.0138	668.111	792.0523	813.7816	889.2961	955.6407	1000.9936	1034.2675	1077.4895	1086.4742	1102.6223	1125.0846	1207.8896	1225.2051	1275.7381	1327.545	1368.0326	1390.0555	1426.0917	1470.305	1502.2959	1911.438	2981.401	3027.946	3036.3433	3077.7687	3092.7536	3551.9456	3759.5561
OCC1NCC1=O	OC[C@H]1NCC1=O	
InChI=1S/C4H7NO2/c6-2-3-4(7)1-5-3/h3,5-6H,1-2H2	InChI=1S/C4H7NO2/c6-2-3-4(7)1-5-3/h3,5-6H,1-2H2/t3-/m1/s1
