16
gdb 2351	5.32306	2.0486	1.53727	3.9351	62.5	-0.2323	0.0351	0.2674	803.7558	0.136464	-325.797397	-325.789614	-325.78867	-325.830741	26.077	
C	-0.0554887564	 1.4798819724	 0.1619860132	-0.48939
C	 0.0281812042	-0.0382861179	 0.1122183594	 0.362454
O	 1.0741946356	-0.6596485783	 0.1995583083	-0.369728
N	-1.1631106613	-0.6738337521	-0.0354826423	-0.053786
C	-2.5405837592	-0.2479357813	-0.2924602552	-0.170831
C	-2.920264522	-1.7484027227	-0.460608888	-0.239976
C	-1.4229460541	-2.1008746948	-0.2147348427	-0.158054
H	 0.942035896	 1.875551881	 0.350444471	 0.147101
H	-0.4280768991	 1.8820088234	-0.7866052803	 0.133949
H	-0.7367960685	 1.8158524967	 0.9505815526	 0.132518
H	-3.0184558095	 0.2693360141	 0.5479244273	 0.113394
H	-2.6608000639	 0.3667747458	-1.1928605884	 0.112611
H	-3.6057552497	-2.126422911	 0.2981780491	 0.118526
H	-3.298823245	-2.014556687	-1.4475876147	 0.118314
H	-0.890129483	-2.5376450607	-1.0659235931	 0.121684
H	-1.2111833039	-2.7040681276	 0.673876104	 0.121216
31.8155	78.0407	118.4118	157.7782	184.0157	380.7203	549.1814	594.4736	644.0611	762.7406	846.0409	882.8443	932.3728	951.6251	981.2418	1049.9524	1116.1237	1137.6009	1142.7944	1197.8606	1198.5343	1228.0678	1271.2261	1299.7799	1337.6402	1381.3323	1447.7431	1472.3757	1483.639	1492.3941	1511.0395	1534.3274	1766.2078	3016.1757	3040.1872	3041.7208	3054.0546	3081.1075	3093.9176	3100.5622	3148.1273	3160.8629
CC(=O)N1CCC1	CC(=O)N1CCC1	
InChI=1S/C5H9NO/c1-5(7)6-3-2-4-6/h2-4H2,1H3	InChI=1S/C5H9NO/c1-5(7)6-3-2-4-6/h2-4H2,1H3
