16
gdb 3447	4.46228	2.88654	2.11963	2.7391	60.38	-0.2378	0.0754	0.3133	660.9969	0.138442	-325.756157	-325.7499	-325.748956	-325.785997	24.081	
C	 0.1413723368	 1.5599819473	-0.018851892	-0.400002
C	 0.0507946715	 0.0428766296	 0.0363476544	 0.154127
O	 0.71509141	-0.4891965507	-1.115069573	-0.270308
C	 1.2970981297	-1.7505775824	-0.811460961	-0.073673
C	 1.5262287462	-1.746369536	 0.6854902731	-0.053749
N	 2.210341823	-0.5182102132	 1.1430947755	-0.328148
C	 0.7373632305	-0.617413096	 1.220832717	-0.069463
H	 1.186199535	 1.8689377366	 0.0610249809	 0.139969
H	-0.2654596174	 1.9291549898	-0.9640796168	 0.123396
H	-0.4296083192	 2.0095303043	 0.8001925631	 0.105081
H	-1.0073613011	-0.2727390031	 0.039825422	 0.062469
H	 0.624607636	-2.5826513642	-1.0784663753	 0.086828
H	 2.2166948523	-1.8411555595	-1.3991528038	 0.112019
H	 1.660986276	-2.6791355441	 1.2225637844	 0.091393
H	 2.6006319893	-0.6832656334	 2.0680333294	 0.230978
H	 0.2422351615	-0.650119085	 2.1855220422	 0.089083
147.8115	226.7295	248.6595	340.7976	398.924	531.3523	643.2449	753.3205	798.1918	837.4724	867.8311	877.5771	910.4286	964.6479	1018.4473	1040.5145	1079.9992	1104.9783	1111.6113	1137.9319	1157.9214	1170.1443	1233.4947	1256.1492	1325.267	1355.8315	1383.9655	1390.1098	1406.6079	1434.4095	1485.9918	1499.6887	1509.4774	2946.6997	2970.3517	3043.8193	3068.5917	3114.0896	3135.6669	3165.7046	3176.4425	3498.0558
CC1OCC2NC12	C[C@H]1OC[C@H]2N[C@@H]12	
InChI=1S/C5H9NO/c1-3-5-4(6-5)2-7-3/h3-6H,2H2,1H3	InChI=1S/C5H9NO/c1-3-5-4(6-5)2-7-3/h3-6H,2H2,1H3/t3-,4-,5+/m1/s1
