15
gdb 1592	3.53406	2.29991	1.52019	2.152	62.92	-0.2436	-0.0181	0.2255	812.1279	0.121273	-308.509454	-308.500986	-308.500042	-308.542719	29.461	
C	 0.5015953213	 1.7358621336	-0.2894318872	-0.382138
C	 0.0538142671	 0.3131884325	 0.0811593261	-0.245213
C	 0.3310848897	-0.6510726905	-0.9799600084	 0.324564
C	 0.5841064091	-1.4312403299	-1.8592176004	-0.480391
C	 0.6596961287	-0.1412970629	 1.4365496512	 0.387897
C	 0.3988454166	-1.5724539482	 1.8564691099	-0.477633
O	 1.2806170063	 0.6338581119	 2.1207698035	-0.286585
H	 1.5807993436	 1.7655232037	-0.4545957007	 0.1371
H	-0.001170361	 2.0641089708	-1.2019137327	 0.120976
H	 0.2658880431	 2.4251711206	 0.5232351661	 0.133322
H	-1.0352796964	 0.3173044302	 0.2511071728	 0.126382
H	 0.7987152192	-2.1204233487	-2.638180497	 0.201447
H	-0.6635179506	-1.8204116253	 1.7599084712	 0.137316
H	 0.9412280943	-2.2543288162	 1.1942978587	 0.161186
H	 0.727685049	-1.7172238015	 2.8859353668	 0.141769
32.626	113.7569	155.7893	192.6361	220.6475	265.7725	381.6726	424.4405	520.0856	540.1313	614.632	625.5245	643.6199	727.7395	880.0454	949.8096	973.9344	1066.6472	1101.7984	1126.7236	1193.0909	1278.5958	1309.0633	1382.2669	1408.6203	1461.5271	1471.6904	1485.7937	1492.6799	1821.2135	2231.4377	2980.1107	3046.1597	3060.1167	3110.6282	3137.266	3144.9998	3156.543	3503.0397
CC(C#C)C(C)=O	C[C@@H](C#C)C(=O)C	
InChI=1S/C6H8O/c1-4-5(2)6(3)7/h1,5H,2-3H3	InChI=1S/C6H8O/c1-4-5(2)6(3)7/h1,5H,2-3H3/t5-/m0/s1
