7
gdb 34	35.93172	4.83443	4.37827	4.6788	28.56	-0.3018	0.0022	0.3039	280.6659	0.050262	-207.916786	-207.912215	-207.911271	-207.943384	13.845	
O	-0.0373822079	 1.4454784061	 0.0101076874	-0.395296
C	 0.0129290637	 0.0344166065	 0.0020916516	-0.185765
C	-1.3574745154	-0.4887452337	 0.0123973841	 0.279702
N	-2.4213527733	-0.9368518434	 0.0201605291	-0.289707
H	 0.8689805678	 1.769729488	 0.0041757666	 0.302962
H	 0.5169271342	-0.3632979035	-0.8921581397	 0.14405
H	 0.5338761608	-0.37278749	 0.8822392109	 0.144054
189.7929	235.3266	378.3137	579.9065	894.5135	1033.7374	1085.5965	1251.0677	1254.3751	1461.4523	1499.2917	2373.8971	2985.7184	3012.861	3826.6644
OCC#N	OCC#N	
InChI=1S/C2H3NO/c3-1-2-4/h4H,2H2	InChI=1S/C2H3NO/c3-1-2-4/h4H,2H2
