11
gdb 192	9.35773	3.58145	2.6326	2.0636	47.63	-0.2364	0.0066	0.243	481.0455	0.086244	-285.328258	-285.323118	-285.322174	-285.356714	18.024	
C	 0.061519571	 1.4887348724	 0.0614162178	-0.49193
C	-0.0670011247	 0.0120213615	-0.002200659	 0.335736
C	-1.0723550209	-0.8556339208	-0.2755561587	-0.184998
N	-0.6041670808	-2.1630540696	-0.1844937057	-0.255093
C	 0.6387965307	-2.0243802495	 0.1336928547	 0.07181
O	 1.0503800958	-0.7406585501	 0.2652447437	-0.174526
H	 0.8041778215	 1.8588557866	-0.654004094	 0.14371
H	-0.8996213375	 1.9515950441	-0.1731079385	 0.142375
H	 0.3690432318	 1.8230390701	 1.0584275472	 0.143702
H	-2.0971453052	-0.6367967175	-0.5308070155	 0.121482
H	 1.3789740683	-2.7900083273	 0.305280678	 0.147732
142.0186	251.1687	328.9714	646.2071	665.8194	670.9882	832.6002	852.0041	941.0121	955.0824	1023.3071	1068.2972	1125.9319	1134.2549	1237.0088	1259.9764	1351.386	1418.8122	1472.9044	1488.4693	1555.9546	1644.9283	3033.9941	3086.6205	3129.994	3262.9654	3276.1895
CC1=CN=CO1	Cc1cnco1	
InChI=1S/C4H5NO/c1-4-2-5-3-6-4/h2-3H,1H3	InChI=1S/C4H5NO/c1-4-2-5-3-6-4/h2-3H,1H3
