12
gdb 2902	7.34607	1.97023	1.58435	3.9819	52.84	-0.263	-0.0762	0.1868	727.8275	0.09051	-360.526646	-360.520312	-360.519368	-360.557533	21.219	
O	-0.0974953792	 0.0203832342	 0.2367995577	-0.21691
C	 0.022518261	 1.2020621921	 0.0611733318	 0.111888
C	 1.3459261087	 1.9022952196	-0.0304147538	 0.311798
N	 2.4917052077	 1.3642673888	 0.0613390002	-0.273137
C	 3.465373969	 2.4564731223	-0.0907553255	-0.186726
C	 2.6063593087	 3.7334059261	-0.2959860031	-0.115564
O	 1.2443615384	 3.2436187627	-0.2318542496	-0.254311
H	-0.8432623296	 1.8860989527	-0.0497484225	 0.104178
H	 4.0976075108	 2.5087099818	 0.8015366207	 0.131187
H	 4.1223563426	 2.2453504025	-0.9405737452	 0.131194
H	 2.7360314127	 4.4824590627	 0.4892551267	 0.128274
H	 2.7513882293	 4.2089904544	-1.2694102673	 0.128128
78.7068	119.7653	216.7873	219.1378	473.8926	595.79	739.7241	775.8178	821.3394	923.55	974.6514	999.3519	1030.0537	1035.1127	1113.9589	1212.6773	1213.3668	1246.7657	1333.2936	1374.9197	1429.7094	1494.1306	1524.7297	1709.7819	1837.4954	2933.8178	3048.0152	3062.8152	3077.5674	3112.4624
O=CC1=NCCO1	O=CC1=NCCO1	
InChI=1S/C4H5NO2/c6-3-4-5-1-2-7-4/h3H,1-2H2	InChI=1S/C4H5NO2/c6-3-4-5-1-2-7-4/h3H,1-2H2
