13
gdb 4624	5.84197	1.64557	1.29698	8.5351	62.76	-0.2454	-0.0456	0.1998	879.717	0.097206	-394.828725	-394.821737	-394.820793	-394.861227	24.079	
C	 0.0321305378	 1.4900836217	 0.0097809379	-0.349764
N	-0.0203477277	 0.0340836079	 0.0023494004	-0.0631
C	-0.0399970213	-0.6932263392	-1.1656759393	 0.104367
N	-0.0202999626	-1.9698908816	-1.2287932894	-0.302037
C	 0.0656933944	-2.7043359713	-0.0129604976	 0.38919
O	 0.1876732366	-3.9013096038	-0.0201934316	-0.327889
N	-0.0049284452	-1.9830529108	 1.2116925923	-0.302054
C	-0.0253205363	-0.7057816694	 1.1626050319	 0.104364
H	 1.0645666935	 1.8546820144	 0.0030867776	 0.158623
H	-0.4862184924	 1.8785604879	-0.8694037683	 0.15843
H	-0.4712211234	 1.8687900499	 0.9018319746	 0.158421
H	-0.0879482773	-0.0965027472	-2.0770643448	 0.135724
H	-0.0617404061	-0.1189284384	 2.0809102062	 0.135725
42.9275	57.0793	199.4739	333.2598	425.1614	473.5855	505.8076	537.6048	675.5564	764.761	830.937	835.5411	971.9976	981.1464	997.6163	1064.9089	1134.2269	1151.0387	1257.8082	1397.2491	1415.9543	1430.5813	1475.9857	1488.1929	1512.6485	1599.3568	1728.5135	1822.1685	3043.0092	3115.1568	3125.0728	3132.3339	3141.6633
CN1C=NC(=O)N=C1	Cn1cnc(=O)nc1	
InChI=1S/C4H5N3O/c1-7-2-5-4(8)6-3-7/h2-3H,1H3	InChI=1S/C4H5N3O/c1-7-2-5-4(8)6-3-7/h2-3H,1H3
