19
gdb 3338	3.79131	2.96382	2.02194	0.1651	69.85	-0.2589	0.0837	0.3426	716.7892	0.175335	-273.791878	-273.785636	-273.784692	-273.82161	25.401	
C	-0.0243038316	 1.5311180549	-0.0358702945	-0.286506
C	 1.2964962339	 0.794010661	-0.0161816282	-0.012407
C	 2.1766191515	 0.835178268	 1.2351442285	-0.214359
C	 1.8044359073	-0.2288724122	 2.2815131302	-0.177429
C	 0.2901205934	-0.2919308292	 2.5114987255	-0.199828
C	-0.4316069531	-0.7484369054	 1.2335003811	-0.205818
C	-0.0114865896	 0.0250731522	-0.0056374409	 0.000017
H	-0.3104345462	 2.0611967716	 0.868116574	 0.104712
H	-0.3321199624	 2.0260825252	-0.9508646603	 0.102239
H	 1.8409895569	 0.7887337174	-0.9554682022	 0.077223
H	 3.2246177607	 0.705260155	 0.9448541112	 0.093511
H	 2.1140139475	 1.8291380225	 1.6971054823	 0.096039
H	 2.1488965645	-1.2146575762	 1.9403659287	 0.091671
H	 2.3301530362	-0.0219134971	 3.2203724973	 0.087194
H	 0.0535501956	-0.9831596989	 3.3277346703	 0.090682
H	-0.0762593708	 0.6936428573	 2.8289798053	 0.093728
H	-0.2004210619	-1.8102850032	 1.0721383305	 0.093051
H	-1.5193506669	-0.6872307076	 1.365529593	 0.090992
H	-0.2830869851	-0.4599374154	-0.9395791217	 0.075289
137.0596	259.8394	340.7369	371.0034	433.3826	494.04	616.5352	740.4028	774.9256	808.6491	829.2688	866.303	910.1064	923.4507	938.947	990.268	1036.9291	1057.3337	1066.8194	1099.0023	1119.5587	1130.4841	1149.3672	1199.0581	1204.8255	1237.6321	1283.2101	1299.3185	1348.5772	1368.1174	1372.1998	1383.8551	1391.4729	1416.1365	1481.7562	1489.998	1492.1849	1496.3418	1507.8252	3008.3741	3012.2173	3016.531	3019.0057	3043.8967	3060.2152	3064.9559	3068.9303	3119.6535	3131.7192	3147.4961	3203.0628
C1C2CCCCC12	C1[C@H]2CCCC[C@@H]12	
InChI=1S/C7H12/c1-2-4-7-5-6(7)3-1/h6-7H,1-5H2	InChI=1S/C7H12/c1-2-4-7-5-6(7)3-1/h6-7H,1-5H2/t6-,7+
