17
gdb 1982	5.34125	1.56122	1.3846	2.6593	64.63	-0.2366	-0.0084	0.2282	914.8221	0.146878	-309.727603	-309.719627	-309.718683	-309.761177	28.05	
C	-0.8466829102	 0.905374541	-0.1394701537	-0.47951
C	 0.2666649909	-0.0897964497	 0.1284010888	 0.389651
O	 0.7707092248	-0.2139577376	 1.2207089748	-0.304501
C	 0.7048861318	-0.969555227	-1.0431008143	-0.306464
C	-0.0374964392	-2.2972185372	-1.011537287	 0.038562
C	-1.3669610445	-2.4631556037	-1.7075388748	-0.25639
C	-0.136367289	-3.1479381094	-2.2505892129	-0.278623
H	-0.5105747539	 1.6533763301	-0.8674850405	 0.137874
H	-1.7104783614	 0.3978277106	-0.5828613838	 0.142371
H	-1.1392503165	 1.4018942971	 0.7864802305	 0.139921
H	 0.5217185843	-0.4670126718	-1.9996747117	 0.094701
H	 1.7810029124	-1.1445418963	-0.9419188956	 0.122974
H	 0.0795473836	-2.8308573591	-0.0727436788	 0.103482
H	-2.1290305089	-3.0690434212	-1.2302852102	 0.116962
H	-1.7594251218	-1.6202407215	-2.2678828224	 0.109591
H	 0.2948141204	-2.7599799724	-3.1677035832	 0.112673
H	-0.0531769729	-4.2236611119	-2.1423330052	 0.116727
21.0214	88.1747	146.307	158.9787	319.329	329.0277	396.5956	523.0054	588.0029	763.4455	788.5525	819.154	837.4967	883.7469	914.9463	972.9071	1002.0538	1054.848	1062.0902	1080.445	1131.7567	1149.3186	1199.1391	1202.5842	1228.6053	1267.8755	1310.12	1378.1325	1401.0238	1461.3977	1467.1312	1475.429	1478.7925	1506.7374	1814.295	3032.3139	3037.4201	3089.4204	3094.84	3127.9886	3133.5446	3151.5106	3153.5039	3206.7994	3222.1777
CC(=O)CC1CC1	CC(=O)CC1CC1	
InChI=1S/C6H10O/c1-5(7)4-6-2-3-6/h6H,2-4H2,1H3	InChI=1S/C6H10O/c1-5(7)4-6-2-3-6/h6H,2-4H2,1H3
