13
gdb 3040	13.13254	1.0031	1.0008	4.5074	68.89	-0.2592	-0.0553	0.2039	1125.1661	0.10068	-307.283919	-307.276675	-307.27573	-307.316063	24.452	
O	-0.1342782581	 0.0281458799	 0.3491500512	-0.236954
C	 0.0151026415	 1.1394101319	-0.1094065659	 0.017119
C	 1.2459248073	 1.8767611187	-0.0904596271	-0.001733
C	 2.2667848618	 2.527759834	-0.0924930465	 0.132733
C	 3.4782810025	 3.2780916169	-0.0846641868	-0.165982
C	 3.8027419455	 4.2044062551	-1.2544924685	-0.248948
C	 3.4268004287	 4.7971628214	 0.0629250182	-0.248917
H	-0.825118841	 1.679946129	-0.5931505875	 0.092035
H	 4.3257069601	 2.7836055016	 0.3796407507	 0.126219
H	 4.8398227747	 4.2396706751	-1.5671953678	 0.130854
H	 3.0811359578	 4.2455081926	-2.0611232074	 0.136351
H	 2.4462550458	 5.2460598461	 0.1631968984	 0.136359
H	 4.2003039533	 5.2479298176	 0.6737033991	 0.130862
58.288	98.1205	137.3349	205.8629	269.9364	476.1646	549.5282	571.4415	756.8876	802.5423	822.4319	881.5889	903.6129	1019.4604	1058.8287	1062.8225	1085.3318	1115.0792	1187.9542	1202.352	1234.1174	1390.7276	1423.3606	1468.1808	1495.981	1760.4086	2313.7331	2906.3066	3146.6978	3149.9669	3158.2961	3232.5063	3247.3701
O=CC#CC1CC1	O=CC#CC1CC1	
InChI=1S/C6H6O/c7-5-1-2-6-3-4-6/h5-6H,3-4H2	InChI=1S/C6H6O/c7-5-1-2-6-3-4-6/h5-6H,3-4H2
