13
gdb 4156	3.30096	1.53664	1.10991	2.751	59.26	-0.2516	-0.0481	0.2035	996.7966	0.092782	-435.664361	-435.656568	-435.655624	-435.697324	26.8	
O	 0.06397847	 1.1533757669	 0.1862936751	-0.383112
N	 0.0428077429	-0.2451132923	 0.1758826546	-0.195859
C	-1.1287397766	-0.6793777149	 0.0016637874	 0.331292
C	-2.523770393	-0.1541522443	-0.2217315967	-0.162315
O	-3.0017907854	-1.5209540746	-0.3304979105	-0.289875
C	-1.6898047127	-2.0847433517	-0.1012711417	-0.037867
C	-1.1893466311	-2.8891064133	-1.2946608387	 0.1462
O	-0.3608938558	-3.7539367473	-1.2137100492	-0.22578
H	 0.9977260201	 1.3461592395	 0.3279528757	 0.317505
H	-2.971309679	 0.3820828661	 0.6236780044	 0.138214
H	-2.6783912907	 0.4227593732	-1.1414639016	 0.138452
H	-1.6319022953	-2.6924506704	 0.8091850035	 0.128367
H	-1.6601169135	-2.5862620868	-2.2558184923	 0.094778
65.9418	103.3913	150.4454	200.5752	273.3577	355.6027	427.9122	468.3148	492.8722	549.2885	749.2063	867.0278	964.6011	984.1768	1004.1783	1017.3809	1044.0493	1083.4138	1130.0521	1165.0313	1229.4038	1274.6981	1318.5207	1394.0473	1414.7586	1498.3453	1804.681	1839.6498	2897.7067	3025.1827	3051.984	3069.8928	3810.9945
ON=C1COC1C=O	ON=C1CO[C@H]1C=O	
InChI=1S/C4H5NO3/c6-1-4-3(5-7)2-8-4/h1,4,7H,2H2	InChI=1S/C4H5NO3/c6-1-4-3(5-7)2-8-4/h1,4,7H,2H2/t4-/m0/s1
