17
gdb 3550	4.87976	2.79189	2.49675	0.2579	66.76	-0.2433	0.0989	0.3422	636.57	0.150143	-272.533448	-272.52758	-272.526636	-272.562685	23.884	
C	-0.0096411102	 1.5912954662	 0.0323810577	-0.421708
C	 0.0985911415	 0.0720256262	-0.0068464824	 0.047063
C	 0.8125689368	-0.6482337455	-1.152509656	-0.072631
C	 2.3006704737	-0.7774516159	-0.7784887235	-0.059451
C	 2.4952923481	-0.1423344633	 0.5960049111	-0.230382
C	 1.0832833834	-0.697633619	 0.9312380424	-0.076064
C	 1.2810629176	-1.7506182842	-0.2361625105	-0.079504
H	 0.9548495714	 2.0782563982	-0.1351221548	 0.117746
H	-0.6955264441	 1.9482444223	-0.7442344528	 0.111739
H	-0.3991953988	 1.9343204027	 0.9980135783	 0.110279
H	-0.897052368	-0.3717263928	 0.1131117026	 0.067367
H	 0.4956019217	-0.7388758717	-2.1844985662	 0.07659
H	 3.0454478656	-0.9607324206	-1.5427773655	 0.079761
H	 3.2672520007	-0.671715001	 1.1620810599	 0.095909
H	 2.6646130241	 0.9371067748	 0.6785157321	 0.085779
H	 0.8035652296	-0.9173630889	 1.9601536962	 0.062507
H	 1.1975949569	-2.8258398977	-0.2939140386	 0.085001
177.0304	236.0061	295.9417	470.2096	557.6293	669.63	733.7749	781.6733	787.4122	792.0883	861.4592	892.0877	921.3869	966.0486	993.9827	1003.8873	1026.6726	1031.6214	1038.2331	1083.8627	1113.7179	1118.3105	1149.3021	1168.9598	1173.898	1216.6611	1252.9744	1278.7053	1325.9333	1366.9757	1389.2975	1408.3818	1489.7368	1494.3545	1516.9373	3027.6369	3033.364	3037.8908	3087.0754	3089.8805	3115.7237	3127.4873	3183.3602	3193.4793	3224.4029
CC1C2C3CC1C23	C[C@H]1[C@H]2[C@H]3C[C@@H]1[C@@H]23	
InChI=1S/C7H10/c1-3-4-2-5-6(3)7(4)5/h3-7H,2H2,1H3	InChI=1S/C7H10/c1-3-4-2-5-6(3)7(4)5/h3-7H,2H2,1H3/t3-,4+,5-,6+,7-/m1/s1
