14
gdb 4268	3.79666	1.95936	1.30291	7.485	66.61	-0.2266	-0.0207	0.2059	887.9444	0.108828	-378.788913	-378.781852	-378.780908	-378.820498	25.87	
C	-0.0239019331	 1.5051130946	 0.0396524092	-0.487141
C	 0.0010616029	 0.0023202701	-0.0353561454	 0.393575
N	-0.0301982913	-0.6025979874	-1.1722766571	-0.340332
C	-0.0060012902	-2.019393389	-1.2321757989	 0.367909
O	-0.0351750304	-2.5971762959	-2.3004445227	-0.362822
C	 0.0554402875	-2.723607606	 0.0559660135	-0.221813
C	 0.0854544076	-2.0294202326	 1.2071285092	 0.011689
N	 0.0583941187	-0.6542280994	 1.1723002963	-0.332849
H	 0.8752640603	 1.8886672552	 0.5351858594	 0.139657
H	-0.0726686208	 1.9052613875	-0.9716102936	 0.170933
H	-0.8929452123	 1.8559864996	 0.6077987081	 0.13939
H	 0.075506443	-3.8053830271	 0.0505447884	 0.119318
H	 0.1306720738	-2.4792087424	 2.1920015587	 0.135991
H	 0.0803755142	-0.1251516271	 2.0286631749	 0.266494
86.2915	118.1171	201.133	317.1003	413.924	504.4858	523.1074	541.4499	556.5164	615.3547	742.2727	766.3849	857.0212	904.5373	963.7173	971.3967	1045.1369	1059.4212	1096.2947	1187.2451	1223.8233	1301.5419	1401.411	1416.7519	1464.6261	1484.0643	1508.82	1640.1041	1701.2621	1778.6943	3035.8191	3092.018	3172.0722	3200.7954	3229.4538	3647.5892
CC1=NC(=O)C=CN1	Cc1nc(=O)cc[nH]1	
InChI=1S/C5H6N2O/c1-4-6-3-2-5(8)7-4/h2-3H,1H3,(H,6,7,8)	InChI=1S/C5H6N2O/c1-4-6-3-2-5(8)7-4/h2-3H,1H3,(H,6,7,8)
