14
gdb 4940	4.94864	1.40532	1.14095	6.092	59.91	-0.2128	0.0198	0.2326	994.6715	0.109116	-415.904759	-415.897533	-415.896589	-415.936502	26.569	
N	-0.2542128541	 0.7704244277	-0.0390477741	-0.515668
H	-0.2647614225	-0.9110970507	 2.0869028038	 0.281213
H	 0.7213993481	 0.8601258506	-0.3079202948	 0.237387
H	-0.8065584907	 1.0298678805	-0.8498854622	 0.238515
C	-0.5513455018	 1.6744336134	 1.0803414317	-0.280224
C	 0.108306303	 1.1766508326	 2.3204798809	 0.318053
C	 0.7959058438	 1.7892640903	 3.2938425386	-0.134405
O	 1.1750221247	 0.8764961885	 4.2561320454	-0.211329
C	 0.731093045	-0.3789005728	 3.8661522192	 0.486154
O	 0.9351628113	-1.391284784	 4.4766830787	-0.400588
N	 0.0491793545	-0.1690349756	 2.6888445099	-0.404085
H	-0.2573741835	 2.7242980664	 0.9263261413	 0.10709
H	-1.6411745916	 1.6684379105	 1.2164848617	 0.128097
H	 1.070858254	 2.8162754825	 3.45854527	 0.14979
91.157	132.1779	217.5672	267.498	351.8707	427.8823	501.569	530.9011	606.6204	667.9542	717.5828	761.2429	775.6289	862.4738	912.9405	986.648	1006.5894	1058.4697	1093.7803	1178.7694	1180.9554	1240.4621	1291.7688	1344.4692	1421.442	1434.8232	1498.0796	1656.7223	1713.4853	1899.5749	2982.5068	3030.3704	3294.7549	3495.1399	3578.7702	3683.8916
[NH3+]CC1=COC([O-])=N1	NCc1coc(=O)[nH]1	
InChI=1S/C4H6N2O2/c5-1-3-2-8-4(7)6-3/h2H,1,5H2,(H,6,7)	InChI=1S/C4H6N2O2/c5-1-3-2-8-4(7)6-3/h2H,1,5H2,(H,6,7)
