17
gdb 54	4.4178	4.41753	4.41717	0.0003	56.01	-0.3145	0.0737	0.3882	486.2719	0.158836	-197.632222	-197.625241	-197.624297	-197.661411	26.084	
C	-0.0185902927	 1.5348626563	 0.0103990436	-0.389725
C	 0.0021031962	-0.0041367248	 0.0019697952	 0.283706
C	 0.7464395386	-0.5139075983	 1.2488763773	-0.389729
C	-1.4419016588	-0.5367361547	 0.0131145689	-0.389705
C	 0.7223497068	-0.5004960583	-1.2644563185	-0.389745
H	 0.9977692777	 1.944205294	 0.0043547439	 0.10627
H	-0.5418188317	 1.9284141452	-0.8681991137	 0.106263
H	-0.5275840238	 1.9188837592	 0.9014852983	 0.106255
H	 0.2554957551	-0.176027279	 2.1683306655	 0.106277
H	 0.7781538944	-1.6089237237	 1.2708890384	 0.106252
H	 1.7796478595	-0.1497583374	 1.2694403516	 0.106253
H	-1.9987189464	-0.1888879379	-0.8640806634	 0.106275
H	-1.4595690917	-1.6322723502	 0.0064991561	 0.106265
H	-1.980888266	-0.1997963912	 0.9056158002	 0.106271
H	 1.7548247334	-0.1355401842	-1.3011808274	 0.106281
H	 0.7539698884	-1.5952403591	-1.2982228033	 0.106264
H	 0.213582211	-0.153438996	-2.1706718128	 0.10627
194.2858	266.1052	271.1801	271.8776	325.4203	328.3281	411.5119	412.4786	415.2075	730.3278	926.5664	927.1865	928.2822	956.8813	959.3804	960.4441	1088.8389	1090.6407	1272.4892	1273.1262	1273.8775	1397.685	1400.2908	1402.3455	1441.4541	1479.9837	1480.7112	1481.2401	1489.0039	1489.458	1516.6995	1516.8595	1517.4394	3019.9687	3020.2775	3020.3553	3031.1191	3087.5317	3088.0764	3088.3773	3089.4219	3089.6313	3095.7042	3096.173	3096.5245
CC(C)(C)C	CC(C)(C)C	
InChI=1S/C5H12/c1-5(2,3)4/h1-4H3	InChI=1S/C5H12/c1-5(2,3)4/h1-4H3
