15
gdb 1254	6.60578	1.40165	1.2301	5.3405	55.11	-0.2709	0.0142	0.2851	945.3283	0.122847	-382.810709	-382.802647	-382.801703	-382.843261	27.823	
C	 0.1996669671	 1.3599890719	 0.0826816536	-0.417173
C	-0.1582701361	-0.1028236326	-0.1693101772	 0.132389
O	 0.4763447435	-0.9792422371	 0.7540937572	-0.423373
C	-1.6730911479	-0.3244591511	-0.1617642947	-0.0953
O	-1.9962883709	-1.6539200999	-0.5629398572	-0.176098
C	-2.0646554739	-2.5991671763	 0.3974116433	 0.191043
O	-2.2284327316	-3.7548861873	 0.1503629269	-0.277004
H	 1.285503304	 1.4820488783	 0.0934955975	 0.138733
H	-0.2140750018	 2.0120934894	-0.6928021857	 0.128329
H	-0.1928129263	 1.7006978658	 1.0495432384	 0.113157
H	 0.2165312965	-0.4136949407	-1.150951605	 0.112774
H	 0.3586879276	-0.6183107428	 1.6402281339	 0.281214
H	-2.0802901179	-0.1149021169	 0.8384958124	 0.100895
H	-2.169221163	 0.3376149389	-0.8766418983	 0.125383
H	-1.9817477294	-2.1808697696	 1.4176047449	 0.06503
81.7395	85.034	177.5078	231.3562	261.7272	316.8381	342.9251	365.8647	458.0208	487.2986	682.3609	842.7903	921.3877	943.7608	1027.3729	1048.8986	1078.3501	1107.7392	1147.5302	1185.7278	1279.8422	1317.4327	1349.7191	1401.4881	1410.1774	1423.8124	1430.9734	1485.445	1494.3743	1498.6369	1870.1557	2962.3862	3003.5543	3025.4147	3059.2342	3093.4697	3103.1552	3126.1642	3794.0961
CC(O)COC=O	C[C@@H](O)COC=O	
InChI=1S/C4H8O3/c1-4(6)2-7-3-5/h3-4,6H,2H2,1H3	InChI=1S/C4H8O3/c1-4(6)2-7-3-5/h3-4,6H,2H2,1H3/t4-/m1/s1
