9
gdb 913	6.21503	2.98117	2.01475	5.2453	45.42	-0.2737	-0.0602	0.2136	558.3529	0.056738	-375.410333	-375.405204	-375.40426	-375.440082	17.612	
O	 0.0023094507	-0.0205532484	 0.0027808361	-0.298917
C	-0.0139245862	 1.1771669671	 0.0095583349	 0.40691
N	-1.2425499379	 1.9014482507	 0.0299958166	-0.279605
C	-1.1862812201	 3.1656455861	 0.0353621302	 0.142672
O	-0.051149012	 3.9218359305	 0.02344819	-0.166651
C	 1.1040757553	 3.1968651678	 0.0044301642	 0.142672
N	 1.1946100956	 1.9346684762	-0.0028990205	-0.279605
H	-2.0697572451	 3.7981965706	 0.0505044275	 0.166262
H	 1.9700734497	 3.8532619094	-0.004018099	 0.166262
44.801	401.8069	461.1128	527.7194	552.7461	675.9807	818.3415	836.0567	938.111	953.6264	980.8031	982.1135	1076.279	1260.0663	1397.8476	1411.7655	1623.5131	1743.6857	1846.4779	3184.0823	3188.0919
O=C1N=COC=N1	O=c1ncocn1	
InChI=1S/C3H2N2O2/c6-3-4-1-7-2-5-3/h1-2H	InChI=1S/C3H2N2O2/c6-3-4-1-7-2-5-3/h1-2H
