11
gdb 512	21.9297	1.34235	1.28507	5.2846	59.94	-0.2842	-0.0374	0.2468	871.1625	0.084479	-248.151318	-248.144801	-248.143857	-248.18147	21.754	
C	 0.0147250445	 1.5561572089	 0.0103035217	-0.373114
C	-0.0242469032	 0.0153292511	 0.0024029485	-0.334307
C	-1.3759782913	-0.5190989691	 0.0123868543	 0.129375
C	-2.506531777	-0.9460836941	 0.0209465582	-0.010711
C	-3.7821952548	-1.4315988241	 0.0305251675	 0.212951
N	-4.86812615	-1.8447573339	 0.0385592256	-0.3391
H	 1.0521568567	 1.9003858295	 0.0022539836	 0.129467
H	-0.4925072432	 1.9627506913	-0.8679655284	 0.140854
H	-0.4756249184	 1.953264061	 0.902393055	 0.140855
H	 0.4997849772	-0.3684562484	-0.8820604919	 0.151864
H	 0.5165323095	-0.3778871722	 0.8725423359	 0.151866
103.2171	133.1664	233.7152	241.2913	375.0135	491.1298	577.2048	582.6616	671.0397	785.4361	957.105	1075.6206	1101.7288	1174.1588	1281.9175	1345.9674	1413.4996	1465.0849	1495.8047	1504.3953	2265.6494	2402.3305	3027.7825	3053.2914	3058.951	3130.3478	3134.2858
CCC#CC#N	CCC#CC#N	
InChI=1S/C5H5N/c1-2-3-4-5-6/h2H2,1H3	InChI=1S/C5H5N/c1-2-3-4-5-6/h2H2,1H3
