15
gdb 3392	4.58039	2.33547	2.12083	3.2892	61.4	-0.2381	-0.0083	0.2297	683.2258	0.12498	-308.511516	-308.505052	-308.504108	-308.541725	24.491	
C	-0.0216154196	 1.5562948493	-0.0141314686	-0.417374
C	 0.0874731974	 0.0468180673	-0.0921932995	 0.000982
C	 0.7012256709	-0.7344612107	-1.2019368808	-0.067492
C	 1.9200508858	-0.01166737	-1.7955195776	-0.361898
C	 2.5583873987	-0.0821270476	-0.3813228757	 0.414124
O	 3.6656566045	 0.1375602127	 0.0220454683	-0.316285
C	 1.3555587837	-0.7505628228	 0.2143183288	-0.193283
H	 0.8535720595	 2.0640153577	-0.4257020083	 0.131733
H	-0.9022484974	 1.9066562566	-0.5635061825	 0.121821
H	-0.1275395343	 1.8772856233	 1.0270548856	 0.128022
H	-0.7760741517	-0.4596976011	 0.3361164188	 0.099597
H	 0.1968741604	-1.5662939912	-1.6763865742	 0.101975
H	 2.5003755664	-0.6329932303	-2.4841373922	 0.131957
H	 1.7636718581	 0.9697248779	-2.2506719273	 0.119888
H	 1.3668595977	-1.513642661	 0.9832099252	 0.106235
111.1963	177.6305	268.7959	340.565	448.5631	490.0022	592.383	639.5054	708.5533	798.4452	839.4555	882.8108	935.6097	957.7853	993.1912	1015.3562	1037.7846	1054.7869	1109.1519	1135.0338	1147.0354	1203.3658	1217.7513	1293.415	1326.282	1412.7166	1435.0617	1463.5041	1493.5664	1501.6322	1878.9894	3038.8975	3060.7888	3098.7595	3110.9778	3116.4962	3133.438	3189.632	3201.0307
CC1C2CC(=O)C12	C[C@H]1[C@H]2CC(=O)[C@@H]12	
InChI=1S/C6H8O/c1-3-4-2-5(7)6(3)4/h3-4,6H,2H2,1H3	InChI=1S/C6H8O/c1-3-4-2-5(7)6(3)4/h3-4,6H,2H2,1H3/t3-,4+,6-/m0/s1
