12
gdb 2565	4.5911	2.23388	1.69985	2.4123	56.04	-0.2811	-0.0517	0.2295	706.4177	0.089342	-323.389193	-323.382492	-323.381548	-323.419907	23.482	
O	-0.3215682841	 0.4588527784	-0.7517336989	-0.256913
C	 0.1529015723	 1.0161754127	 0.2049888951	 0.098059
C	 1.3485104175	 1.9178623196	 0.1077262592	 0.083659
C	 2.3842768784	 1.5534928042	-0.9723358393	-0.272738
C	 1.4928508422	 2.7105032453	-1.2048592599	-0.272751
C	 1.8030175475	 2.5141157386	 1.3324211869	 0.211838
N	 2.1487718888	 2.9814728612	 2.3326001141	-0.327517
H	-0.2652784961	 0.898540447	 1.2245037341	 0.110013
H	 3.4213972507	 1.7298074525	-0.7152775093	 0.153391
H	 2.1661280904	 0.6297529087	-1.4954905551	 0.159783
H	 0.6612406336	 2.5829864222	-1.8880436835	 0.159792
H	 1.8940084389	 3.7122774096	-1.1137271634	 0.153386
115.6897	159.2216	213.8618	252.1885	304.1362	527.0889	553.6425	569.3027	722.9999	792.7554	798.1092	926.5182	977.0568	1013.311	1054.5072	1079.121	1113.6471	1211.0285	1264.7413	1297.1824	1425.2686	1451.0047	1481.7685	1815.4355	2353.1729	2938.7564	3151.0995	3151.1249	3244.5308	3258.1216
O=CC1(CC1)C#N	O=CC1(CC1)C#N	
InChI=1S/C5H5NO/c6-3-5(4-7)1-2-5/h4H,1-2H2	InChI=1S/C5H5NO/c6-3-5(4-7)1-2-5/h4H,1-2H2
