13
gdb 1450	8.178	1.49631	1.28869	6.333	53.67	-0.2511	-0.0073	0.2438	884.9329	0.101046	-377.82658	-377.818602	-377.817658	-377.859713	26.01	
C	 0.0914316413	 1.4566360633	-0.1412271105	-0.324739
N	-0.0607053153	 0.0127465416	-0.0844314859	-0.363059
C	-1.3019740946	-0.5384726321	 0.1356816834	 0.515058
O	-2.2952611922	 0.0964760466	 0.3900352674	-0.348444
N	-1.2616924868	-1.9544729482	 0.078383065	-0.386302
C	-2.3447058269	-2.8210301634	 0.0526645748	 0.167967
O	-3.5054548306	-2.5268747619	-0.0167990888	-0.257603
H	 1.082700832	 1.7395342471	 0.2227985049	 0.126206
H	-0.0425533574	 1.8529082051	-1.1555994917	 0.130207
H	-0.6705614331	 1.899145012	 0.500426918	 0.173419
H	 0.6265442973	-0.5400452885	-0.5714117105	 0.240678
H	-0.3554511154	-2.3960847974	 0.1251884425	 0.248407
H	-1.9833649683	-3.8702720443	 0.0918766914	 0.078205
46.4757	72.8852	136.5067	176.0077	233.4475	299.4197	379.9777	444.8063	552.0964	603.8062	760.7735	832.529	944.6106	1028.5661	1063.2732	1151.7541	1162.3997	1180.1792	1230.5122	1443.7464	1449.911	1487.9868	1496.807	1509.4352	1548.2758	1810.3472	1876.9729	2910.2274	3025.2714	3095.574	3159.7497	3610.6978	3629.0749
CNC(=O)NC=O	CNC(=O)NC=O	
InChI=1S/C3H6N2O2/c1-4-3(7)5-2-6/h2H,1H3,(H2,4,5,6,7)	InChI=1S/C3H6N2O2/c1-4-3(7)5-2-6/h2H,1H3,(H2,4,5,6,7)
