16
gdb 525	14.85379	1.31677	1.24669	0.835	62.82	-0.2579	0.0587	0.3166	950.8272	0.141225	-234.474613	-234.466965	-234.466021	-234.506066	26.865	
C	-0.0448446095	 1.5616374389	-0.0333681184	-0.384738
C	 0.0046531827	 0.0320411537	 0.0066038445	-0.16233
C	 0.7388768089	-0.5090697505	 1.2367501563	-0.153514
C	 0.7849692745	-2.0500326781	 1.2705341365	-0.352225
C	 1.4812891083	-2.5778001701	 2.4374581108	 0.291852
C	 2.0612133391	-2.9861411247	 3.4081402284	-0.439289
H	 0.9634896267	 1.9897525444	-0.0505585891	 0.116191
H	-0.5743947745	 1.9208291854	-0.9211669801	 0.113081
H	-0.5584494494	 1.9639457851	 0.8467903281	 0.116191
H	-1.0174968599	-0.3693417823	-0.0116477077	 0.096149
H	 0.4935406841	-0.3437111188	-0.9022592066	 0.096145
H	 1.7645947301	-0.1218315973	 1.2602518822	 0.107591
H	 0.2531716565	-0.1475285255	 2.1510681654	 0.107592
H	-0.2391855104	-2.446076328	 1.2477405841	 0.127718
H	 1.2709611003	-2.4203835655	 0.3578763432	 0.127754
H	 2.5714915626	-3.3600317366	 4.2604390125	 0.191833
90.1325	117.914	121.4764	247.9557	274.7176	351.376	381.619	517.0251	613.1043	631.9418	734.8485	791.6818	903.5408	933.7145	949.437	1022.6002	1061.7955	1122.9455	1132.7221	1241.865	1277.1622	1312.0558	1327.7398	1358.7588	1394.3894	1416.2303	1473.298	1485.7323	1497.6832	1501.0375	1511.7113	2238.2112	3010.6064	3013.1953	3029.9373	3034.9441	3036.4701	3040.8494	3077.0944	3098.2339	3103.3321	3509.6862
CCCCC#C	CCCCC#C	
InChI=1S/C6H10/c1-3-5-6-4-2/h1H,4-6H2,2H3	InChI=1S/C6H10/c1-3-5-6-4-2/h1H,4-6H2,2H3
