13
gdb 4373	3.91717	2.02177	1.33419	1.4989	63.74	-0.2232	-0.0136	0.2096	845.1216	0.098887	-394.864229	-394.857817	-394.856873	-394.894525	25.017	
N	 0.0322573995	 1.3183205746	-0.140998084	-0.552921
C	 0.014862336	-0.0433781889	-0.0647934107	 0.437815
N	-1.187326598	-0.6307124133	 0.0224827411	-0.328288
C	-1.1673765327	-1.9660275587	 0.047103124	 0.019915
C	-0.0109568081	-2.7250244648	-0.0081884724	-0.237137
C	 1.1750330747	-1.9891805414	-0.0864753818	 0.436848
O	 2.3510855616	-2.6356491133	-0.1342908708	-0.410927
N	 1.2071724965	-0.6644216126	-0.1136455076	-0.408296
H	 0.9083648221	 1.7795439047	 0.0347884616	 0.260231
H	-0.8154211705	 1.7939675323	 0.1178962375	 0.2637
H	-2.1375266669	-2.4533976103	 0.1174060495	 0.112939
H	-0.0093402239	-3.8053106292	 0.0143925212	 0.108293
H	 3.0324480696	-1.950149499	-0.1883188476	 0.297828
189.3675	228.086	337.6504	372.9057	459.8014	475.909	520.0368	558.0587	565.5653	604.9065	731.9346	797.6956	815.4308	830.0105	987.4098	1005.9462	1012.393	1077.4679	1136.7047	1227.1722	1311.851	1354.5212	1397.8762	1493.4299	1504.7311	1621.0235	1628.424	1659.6684	3153.5871	3234.8448	3612.5795	3742.4955	3756.8097
NC1=NC=CC(O)=N1	Nc1nccc(O)n1	
InChI=1S/C4H5N3O/c5-4-6-2-1-3(8)7-4/h1-2H,(H3,5,6,7,8)	InChI=1S/C4H5N3O/c5-4-6-2-1-3(8)7-4/h1-2H,(H3,5,6,7,8)
