15
gdb 4905	6.73434	1.23871	1.06007	0.4831	63.79	-0.2264	0.0145	0.241	1077.9769	0.11852	-399.833983	-399.825949	-399.825005	-399.867032	27.856	
C	 0.0189602679	 1.4476116522	-0.0161397251	-0.489018
C	-0.0552467159	-0.0361590492	 0.0156022686	 0.377836
N	-1.0950820381	-0.7946418421	-0.1426776927	-0.353747
C	-0.608495828	-2.0927068995	-0.0188921277	 0.248874
C	-1.5028024419	-3.2796566062	-0.138940025	-0.190668
O	-0.7140743827	-4.4451202206	 0.0334696689	-0.419078
C	 0.7224848097	-2.0428795096	 0.2114134695	-0.108308
O	 1.0938517478	-0.7221820784	 0.2363612098	-0.175391
H	 0.6954233665	 1.791817005	-0.8053388267	 0.145307
H	-0.9778593344	 1.8479516618	-0.2016301213	 0.155399
H	 0.3928769106	 1.8441736012	 0.9335159953	 0.145305
H	-2.301393884	-3.2104287782	 0.6174081049	 0.108359
H	-1.9982577555	-3.2627776713	-1.1232378326	 0.108359
H	-1.2902523267	-5.2101604799	-0.0438590629	 0.292885
H	 1.4941722148	-2.7739292951	 0.3678033871	 0.153884
56.7496	98.3646	172.4264	177.9294	234.4925	313.5541	327.3146	459.4296	638.7455	672.3768	697.7277	735.7049	765.3852	941.5651	1011.734	1037.1691	1050.4589	1066.4574	1093.6218	1128.4881	1200.9662	1233.944	1234.8388	1285.9876	1351.6406	1412.1272	1469.0872	1476.1256	1481.6915	1514.1937	1621.3611	1650.2495	2967.0861	2986.9692	3043.662	3097.5654	3157.157	3314.9234	3844.8934
CC1=NC(CO)=CO1	Cc1nc(CO)co1	
InChI=1S/C5H7NO2/c1-4-6-5(2-7)3-8-4/h3,7H,2H2,1H3	InChI=1S/C5H7NO2/c1-4-6-5(2-7)3-8-4/h3,7H,2H2,1H3
