15
gdb 3519	5.69428	2.13848	2.01571	1.5957	56.51	-0.2473	0.074	0.3213	691.9407	0.125476	-345.606551	-345.600052	-345.599108	-345.637528	23.154	
C	 0.4034557264	 1.4042277024	 0.3195928994	-0.167388
O	 1.2212201116	 0.2893936182	-0.0553152043	-0.238499
C	-0.1876390555	 0.0890935435	 0.049056123	 0.057776
C	-0.6434460793	-0.8132367809	 1.1681735581	 0.113091
C	 0.0479613089	-2.1979679663	 1.2462170125	-0.288278
C	 0.6328288465	-1.6665184437	 2.5686860977	-0.056657
O	-0.1025217457	-0.4273305096	 2.4477119786	-0.287291
H	 0.5100360178	 1.7189556116	 1.3540158011	 0.13529
H	 0.3226205487	 2.1950671103	-0.4244202916	 0.111642
H	-0.695048229	-0.0743033484	-0.9043538144	 0.090074
H	-1.7420828658	-0.8357464124	 1.1877678805	 0.077425
H	-0.6299526024	-3.0464167556	 1.3445232314	 0.110852
H	 0.7739657024	-2.3918562776	 0.4563155137	 0.125443
H	 0.3522350644	-2.2149260625	 3.4752141151	 0.101841
H	 1.7146337311	-1.4946048591	 2.5680295992	 0.114678
69.0457	110.9461	230.4348	245.9968	458.2773	615.3419	721.8145	793.337	836.5787	871.5219	918.0735	938.4024	982.7991	996.2403	1034.0128	1078.3499	1108.7138	1118.952	1163.6041	1168.1796	1171.2412	1220.2337	1260.0753	1270.3072	1284.9595	1356.3846	1377.1183	1426.6222	1484.1392	1513.3578	1526.7856	3006.0706	3027.8496	3072.5774	3086.0181	3089.3827	3098.2131	3147.6547	3197.8701
C1OC1C1CCO1	C1O[C@H]1[C@H]1CCO1	
InChI=1S/C5H8O2/c1-2-6-4(1)5-3-7-5/h4-5H,1-3H2	InChI=1S/C5H8O2/c1-2-6-4(1)5-3-7-5/h4-5H,1-3H2/t4-,5-/m1/s1
