12
gdb 2258	4.11833	3.02182	2.12585	3.469	50.79	-0.2401	0.0034	0.2435	609.1441	0.090112	-360.492675	-360.486607	-360.485663	-360.522299	22.845	
O	-0.1229496611	 1.4525794854	 0.0041329166	-0.443819
C	-0.0340549371	 0.0863662203	 0.0742813735	 0.250418
C	-0.2497745144	-0.8364237591	-1.1383586179	-0.346962
C	-1.1575742594	-0.9239366536	 0.0565438221	-0.049117
N	-0.5133233254	-1.650139808	 1.1576061949	-0.338864
C	 0.5865707987	-0.7639074917	 1.189239301	 0.344624
O	 1.5893577148	-0.751432996	 1.8420300791	-0.338924
H	 0.6966085258	 1.7929517618	-0.3720058512	 0.301329
H	-0.6476448107	-0.3078560256	-2.0006662414	 0.128813
H	 0.4393659382	-1.6451444438	-1.364480355	 0.122619
H	-2.223951812	-0.7452832291	 0.0538113549	 0.127078
H	-0.3901522774	-2.6572043207	 1.1547070633	 0.242806
187.1211	226.4108	295.0382	334.8409	451.5858	504.3083	610.7011	679.3737	727.1299	766.9225	860.7278	914.016	921.7326	972.3474	1016.3951	1056.7551	1086.3939	1126.4203	1215.6573	1268.7777	1315.7198	1320.1386	1425.2262	1493.0005	1901.8161	3112.8044	3205.8098	3218.7029	3539.5776	3799.2624
OC12CC1NC2=O	O[C@]12C[C@H]1NC2=O	
InChI=1S/C4H5NO2/c6-3-4(7)1-2(4)5-3/h2,7H,1H2,(H,5,6)	InChI=1S/C4H5NO2/c6-3-4(7)1-2(4)5-3/h2,7H,1H2,(H,5,6)/t2-,4-/m1/s1
