17
gdb 2949	5.19802	1.9806	1.71109	1.7571	60.49	-0.2428	0.0833	0.3261	785.7438	0.148863	-346.84548	-346.838181	-346.837237	-346.877461	25.756	
C	 0.307904049	 0.9969831608	 0.3469678383	-0.237933
O	-0.0841802849	-0.3060570203	-0.0150098162	-0.248096
C	-1.4865289931	-0.4722276435	-0.1594905652	 0.102622
C	-1.7211078225	-1.837874181	-0.813326258	-0.240082
C	-1.7089055657	-2.7629879969	 0.4041870403	-0.063561
O	-2.3794554209	-2.0325355943	 1.427091596	-0.260715
C	-2.2087004627	-0.6358364196	 1.1978528995	-0.07712
H	 1.399942514	 1.0068025342	 0.3847198399	 0.129334
H	-0.029411277	 1.7407182539	-0.39261566	 0.10405
H	-0.0767325739	 1.2975054431	 1.3331762882	 0.106307
H	-1.8996448222	 0.361895719	-0.7447209503	 0.064338
H	-2.7026490138	-1.8571381474	-1.2968740819	 0.105769
H	-0.951214279	-2.0621347073	-1.5534560708	 0.113159
H	-2.2477694307	-3.7027654138	 0.2532545498	 0.103671
H	-0.6755719265	-2.994274699	 0.7023955739	 0.101264
H	-1.6178675557	-0.188400245	 2.0077322923	 0.100016
H	-3.1971672344	-0.1585839628	 1.1924949341	 0.096976
51.2079	117.2235	179.0748	201.3697	306.467	387.0237	458.1655	643.8504	751.2398	838.9355	867.8716	920.6274	932.5107	958.0823	998.2698	1062.1375	1114.9735	1127.6278	1147.0112	1182.2181	1194.5492	1211.6663	1238.5971	1259.7824	1299.0324	1324.8667	1360.1167	1381.5684	1410.4024	1472.912	1479.2287	1489.6998	1504.5174	1510.9737	1524.084	2971.1288	2995.669	2997.2017	3012.8226	3020.8259	3045.9173	3062.4826	3085.7306	3113.8596	3129.9815
COC1CCOC1	CO[C@H]1CCOC1	
InChI=1S/C5H10O2/c1-6-5-2-3-7-4-5/h5H,2-4H2,1H3	InChI=1S/C5H10O2/c1-6-5-2-3-7-4-5/h5H,2-4H2,1H3/t5-/m0/s1
