17
gdb 4045	2.89982	1.08554	0.81301	0.2856	75.69	-0.2461	-0.006	0.2401	1346.8455	0.134974	-455.080627	-455.07196	-455.071015	-455.114246	32.599	
O	-0.1727596084	 1.3392852145	 0.1808021561	-0.392754
N	-0.0164376114	-0.0586650905	 0.1994769591	-0.220822
C	-1.1284193364	-0.6460493823	 0.0126176804	 0.389296
C	-1.2353221901	-2.1560480261	-0.0118609681	-0.294489
C	-2.6847900117	-2.4212906388	 0.4532028368	-0.29449
C	-3.4362788654	-1.1950233861	-0.0197091522	 0.389292
C	-2.4946647755	-0.0192855076	-0.1511716889	-0.391303
N	-4.6765610063	-1.2376761342	-0.2959707828	-0.22082
O	-5.1461263897	 0.0212581972	-0.712675887	-0.392753
H	 0.7210269806	 1.6463916517	 0.366010654	 0.307239
H	-1.1053347225	-2.5129787731	-1.0420153983	 0.126203
H	-0.4720010519	-2.6365559846	 0.6020473175	 0.126336
H	-3.116881831	-3.3468633109	 0.0697447967	 0.126336
H	-2.7195559615	-2.4685137725	 1.5495958777	 0.1262
H	-2.6734255457	 0.7532130987	 0.6057045122	 0.154644
H	-2.6165519903	 0.4844289091	-1.1170813574	 0.154647
H	-6.0686970028	-0.1635412546	-0.9180628659	 0.307238
74.1778	102.7868	164.6583	266.3389	292.8803	307.4563	378.009	389.2494	457.9788	475.8455	524.9551	530.9553	642.0447	659.7306	810.9625	830.7984	860.9117	934.0545	959.4102	973.0654	986.5237	1005.8744	1151.6319	1156.9203	1198.1168	1201.4145	1248.5833	1265.8053	1303.9863	1318.9921	1403.5962	1404.1382	1437.6419	1473.5027	1484.8334	1749.1659	1773.7485	3021.5982	3030.2082	3046.5358	3071.3899	3117.0837	3120.763	3819.0944	3819.462
ON=C1CCC(C1)=NO	ON=C1CCC(=NO)C1	
InChI=1S/C5H8N2O2/c8-6-4-1-2-5(3-4)7-9/h8-9H,1-3H2	InChI=1S/C5H8N2O2/c8-6-4-1-2-5(3-4)7-9/h8-9H,1-3H2
