17
gdb 2240	4.58747	2.60341	2.12855	1.4675	63.16	-0.2238	0.0895	0.3134	686.5542	0.14951	-309.711468	-309.70496	-309.704016	-309.741379	25.415	
C	-0.2474255188	 1.5351881116	 0.0535151605	-0.480379
C	 0.0731557358	 0.061954878	-0.0059874142	 0.319114
C	-0.7025349658	-0.9322236508	 0.8499365976	-0.373114
C	 0.7678912585	-0.6895163962	 1.0947656961	 0.092081
O	 1.699087858	-1.6017152981	 0.5748840261	-0.257518
C	 1.3985586868	-1.7887531079	-0.8090143606	-0.090886
C	 0.6781428811	-0.5086122967	-1.2850078474	-0.288494
H	 0.6218798491	 2.1419472337	-0.2264912243	 0.11613
H	-1.0668874897	 1.7948940905	-0.6272907207	 0.117561
H	-0.553387089	 1.834506989	 1.0611664292	 0.114924
H	-1.3985768704	-0.5157138875	 1.5710321122	 0.108599
H	-1.017750895	-1.8800004229	 0.425887678	 0.112047
H	 1.1151106407	-0.233870994	 2.0152032902	 0.097043
H	 2.3382299299	-1.9824396773	-1.3336366385	 0.109187
H	 0.7548318481	-2.669905837	-0.9391856857	 0.098
H	-0.0586956969	-0.7246128588	-2.0654333721	 0.101916
H	 1.3933668273	 0.2148175743	-1.6933639666	 0.103789
194.1526	207.617	241.0016	316.997	357.9108	454.2486	567.3281	684.1981	702.9658	833.9051	848.1279	877.3066	928.9891	945.2543	976.8963	1000.3252	1027.1018	1037.9605	1066.4668	1092.1713	1142.3974	1166.4661	1222.8822	1234.3419	1265.6013	1291.8515	1320.4479	1380.0496	1410.4511	1421.9421	1481.3321	1489.5497	1494.6367	1505.244	1527.7324	3001.2401	3019.5095	3035.998	3076.5646	3078.2582	3089.1285	3095.0748	3126.591	3177.345	3211.679
CC12CC1OCC2	C[C@]12C[C@H]1OCC2	
InChI=1S/C6H10O/c1-6-2-3-7-5(6)4-6/h5H,2-4H2,1H3	InChI=1S/C6H10O/c1-6-2-3-7-5(6)4-6/h5H,2-4H2,1H3/t5-,6+/m1/s1
