15
gdb 4183	5.21394	1.45294	1.28386	2.0856	65.41	-0.2466	-0.0097	0.2369	936.889	0.118715	-399.711969	-399.704975	-399.704031	-399.74345	26.179	
O	-0.1961071694	 1.2891884104	-0.2551669837	-0.386951
N	-0.0513976725	-0.104622296	-0.1872592432	-0.2323
C	-1.1587524541	-0.6674122526	 0.0557883958	 0.438554
C	-2.5757905611	-0.2248169759	 0.3884536657	-0.344645
C	-2.9284942739	-1.7192214275	 0.6618226897	-0.081133
C	-3.3468792064	-2.5134483045	-0.5845667076	-0.074085
O	-1.9695808516	-2.766823054	-0.9538879961	-0.284975
C	-1.474613491	-2.1343660761	 0.2499987814	 0.009164
H	 0.7053080516	 1.580493907	-0.4315024211	 0.309937
H	-2.618252212	 0.4222165103	 1.2698766042	 0.132325
H	-3.1327673623	 0.2614923356	-0.4182859849	 0.127064
H	-3.387729052	-1.9636844339	 1.6170416359	 0.08785
H	-3.87608965	-3.4514367268	-0.3749612115	 0.10518
H	-3.8924929788	-1.9586484843	-1.3578728557	 0.105628
H	-0.7795271964	-2.7677586417	 0.8053106312	 0.088387
76.8648	167.5157	205.0806	335.1099	379.314	408.1624	481.3742	557.7316	693.1991	776.7444	801.8354	831.3915	907.8752	938.2389	969.9521	980.9965	1015.489	1042.6282	1060.3485	1130.0963	1145.429	1171.2121	1189.7912	1223.3421	1245.1071	1288.8678	1306.5669	1353.5414	1406.2832	1455.8902	1522.5147	1776.6468	3012.6931	3052.9905	3057.2286	3092.3067	3098.7397	3138.8875	3812.0918
ON=C1CC2COC12	ON=C1C[C@H]2CO[C@@H]12	
InChI=1S/C5H7NO2/c7-6-4-1-3-2-8-5(3)4/h3,5,7H,1-2H2	InChI=1S/C5H7NO2/c7-6-4-1-3-2-8-5(3)4/h3,5,7H,1-2H2/t3-,5+/m0/s1
