17
gdb 1319	3.38529	2.49965	2.08605	2.3266	60.13	-0.2427	0.0662	0.309	730.4646	0.146404	-346.840522	-346.832677	-346.831732	-346.871994	29.06	
C	 0.0054775912	 1.5550689995	-0.1128607304	-0.418105
C	 0.0587902053	 0.053232009	 0.0599767218	 0.145359
O	 0.9594916161	-0.5960999681	-0.8705846754	-0.296739
C	 1.4360922767	-1.4893791698	 0.1545063141	-0.114153
C	 0.779745864	-0.6183245348	 1.2593142475	 0.323867
C	 1.7609414405	 0.2461049137	 2.037355752	-0.457159
O	-0.1452476975	-1.2578130768	 2.1131327697	-0.471149
H	 0.9963420623	 2.0082903307	-0.0253507812	 0.11835
H	-0.3919570872	 1.799862738	-1.1029083708	 0.129859
H	-0.6569218434	 2.0016093564	 0.6362762127	 0.122197
H	-0.9513323514	-0.3743324859	-0.0233039089	 0.080267
H	 0.9811129157	-2.4864769653	 0.0849028554	 0.096212
H	 2.5289802563	-1.5761656845	 0.1491562592	 0.09363
H	 2.4611476592	 0.7542491361	 1.368980392	 0.134057
H	 1.2336762051	 0.9989629091	 2.6310959844	 0.126752
H	 2.3540949077	-0.3764040436	 2.7196588063	 0.108851
H	 0.3243634295	-1.5721035735	 2.8927781716	 0.277905
88.3974	208.5931	235.5923	254.3543	272.5821	287.2912	353.656	399.4836	449.2199	524.1349	652.1531	765.5065	870.5888	900.0721	912.6655	979.3141	1018.6554	1035.5575	1097.6048	1102.3563	1153.1695	1171.4717	1198.7547	1233.996	1291.5511	1336.2571	1382.9941	1397.5681	1409.2645	1412.8267	1478.2767	1487.5643	1497.5002	1504.6169	1515.9089	2995.3344	3008.3018	3023.611	3040.4197	3062.4125	3091.531	3108.1884	3119.6535	3124.9553	3809.8727
CC1OCC1(C)O	C[C@H]1OC[C@]1(C)O	
InChI=1S/C5H10O2/c1-4-5(2,6)3-7-4/h4,6H,3H2,1-2H3	InChI=1S/C5H10O2/c1-4-5(2,6)3-7-4/h4,6H,3H2,1-2H3/t4-,5+/m1/s1
