15
gdb 3623	5.27861	3.63731	3.41629	0.0882	62.63	-0.2375	0.1026	0.34	511.9247	0.127818	-271.304881	-271.300339	-271.299395	-271.332712	19.807	
C	-0.0469446264	 1.5872452744	 0.1291050891	-0.240572
C	 1.4910473445	 1.5143508189	-0.0400128648	-0.050443
C	 2.0300090285	 0.5882808568	 1.0763969627	-0.06345
C	 0.9435065258	-0.4911426847	 1.0825362581	-0.063437
C	 2.1496165802	-0.6237529476	 0.1793310617	-0.10066
C	 1.3390471107	 0.1859760191	-0.8777981478	-0.045526
C	 0.014573909	 0.0478200069	-0.0314950543	-0.05047
H	-0.4552210851	 2.0036778938	 1.0555390559	 0.089188
H	-0.5238865658	 2.0624532437	-0.7348515541	 0.093503
H	 2.0949573023	 2.3649043016	-0.3537680017	 0.060986
H	 2.6034425207	 0.8446894727	 1.9573654335	 0.081183
H	 0.6883906846	-1.0579342544	 1.9681648518	 0.081184
H	 2.9103308809	-1.3898159576	 0.1122518308	 0.08221
H	 1.3918885384	 0.1264712106	-1.9619037926	 0.065324
H	-0.8418505582	-0.5520862943	-0.3368443181	 0.06098
402.807	531.3638	711.8337	732.2799	782.1013	788.6349	799.3826	819.7898	858.2393	861.1804	863.2577	923.5173	961.7693	979.4217	986.7199	1009.5981	1034.1767	1036.5404	1062.2287	1084.112	1095.7217	1167.6177	1178.3912	1187.7674	1222.9122	1229.0536	1260.3969	1271.7719	1300.7798	1356.6936	1486.8225	3038.3335	3094.3933	3119.4292	3120.1858	3147.3846	3193.7799	3194.281	3210.8116
C1C2C3C4C3C2C14	C1[C@H]2[C@H]3[C@@H]4[C@H]3[C@H]2[C@H]14	
InChI=1S/C7H8/c1-2-4-3(1)6-5(2)7(4)6/h2-7H,1H2	InChI=1S/C7H8/c1-2-4-3(1)6-5(2)7(4)6/h2-7H,1H2/t2-,3+,4-,5+,6-,7+
