12
gdb 483	6.50004	3.85598	3.01225	2.2569	45.92	-0.2318	0.0706	0.3024	464.135	0.095993	-306.309029	-306.303682	-306.302738	-306.337396	20.187	
O	-0.052037173	 1.4420933832	 0.0437988004	-0.449751
C	-0.0145875065	 0.0640851826	 0.0277771032	 0.313541
C	-0.2878364282	-0.7834049537	-1.1968214027	-0.355044
C	-1.1365030317	-0.9393914584	 0.0399491489	 0.054016
O	-0.4768437397	-1.7721662158	 0.9962014759	-0.283347
C	 0.6009066479	-0.8025144137	 1.1265943725	-0.133325
H	 0.6168466517	 1.7721246272	-0.5660416064	 0.290673
H	-0.7692960128	-0.2347596797	-2.0014074214	 0.117493
H	 0.3816436021	-1.5834220997	-1.5029199911	 0.114587
H	-2.2158868672	-0.8593701093	 0.0797962717	 0.113939
H	 1.5885235086	-1.2462706061	 0.9538099577	 0.101703
H	 0.5680229989	-0.3170716465	 2.1084140412	 0.115514
248.8134	293.3424	365.1977	402.0761	453.3358	637.3571	744.9331	858.9583	901.5475	921.8095	984.0164	989.7138	1010.7622	1056.5793	1075.2676	1096.4171	1146.0721	1221.1807	1266.639	1298.3871	1331.844	1416.9937	1488.4475	1515.7139	3024.834	3080.9861	3108.8206	3193.1198	3207.1003	3795.6902
OC12CC1OC2	O[C@]12C[C@H]1OC2	
InChI=1S/C4H6O2/c5-4-1-3(4)6-2-4/h3,5H,1-2H2	InChI=1S/C4H6O2/c5-4-1-3(4)6-2-4/h3,5H,1-2H2/t3-,4+/m1/s1
