15
gdb 4091	3.49619	1.85649	1.25857	2.6513	66.32	-0.2314	-0.0658	0.1655	926.3203	0.118965	-399.785217	-399.777905	-399.776961	-399.816992	27.238	
O	-0.0390119078	 1.3186812772	 0.1273384588	-0.347095
N	 0.0261340933	-0.0583949359	 0.0647490105	-0.209248
C	-1.1151434055	-0.6343977895	 0.0074920542	 0.29784
C	-1.223645313	-2.1399425836	-0.0567508828	-0.288563
C	-2.6380417087	-2.4272303772	 0.4986325893	-0.225907
C	-3.4790375944	-1.2270346441	 0.0316506149	-0.316607
C	-2.507411683	-0.0424914735	 0.0260989045	 0.340017
O	-2.8071875227	 1.1245512477	 0.0351702212	-0.30033
H	 0.8921253591	 1.5645914768	 0.1791752917	 0.314433
H	-1.1592116426	-2.4709345638	-1.1021952899	 0.121553
H	-0.4227301166	-2.6397050761	 0.4911965675	 0.126016
H	-3.0333378769	-3.3869524279	 0.1591565725	 0.109211
H	-2.6056510382	-2.4532140368	 1.5932162554	 0.116302
H	-3.8265501396	-1.3709871421	-1.000753409	 0.131976
H	-4.3580946235	-1.0078877712	 0.6410461012	 0.130402
71.5656	171.0202	221.4041	289.3537	323.6147	437.3577	467.5392	505.4117	568.362	632.8018	685.698	700.3049	833.7894	880.4196	920.3002	1008.0239	1022.3689	1029.7337	1087.159	1138.8709	1186.324	1221.1684	1246.3391	1301.8022	1321.1757	1338.5014	1422.0001	1452.1312	1479.2135	1503.4999	1696.0729	1827.6754	3019.4996	3026.4112	3051.7574	3105.213	3111.9313	3115.8584	3797.7619
ON=C1CCCC1=O	ON=C1CCCC1=O	
InChI=1S/C5H7NO2/c7-5-3-1-2-4(5)6-8/h8H,1-3H2	InChI=1S/C5H7NO2/c7-5-3-1-2-4(5)6-8/h8H,1-3H2
