12
gdb 1031	7.99151	1.98603	1.59071	4.6613	58.98	-0.2273	-0.0298	0.1975	713.4916	0.092211	-323.427722	-323.421948	-323.421004	-323.457314	21.21	
O	-0.0585598848	-0.0237299495	-0.0007506995	-0.289453
C	 0.0061354072	 1.188148274	 0.007690914	 0.067157
C	 1.2409929467	 1.9617887448	-0.0003797653	 0.188358
C	 2.5234688781	 1.433637672	-0.0188905535	-0.1401
N	 3.3967859481	 2.4730796839	-0.0209890759	-0.230898
C	 2.7140005166	 3.6727830468	-0.003941389	-0.062877
C	 1.3749344018	 3.3865700178	 0.0089795479	-0.253936
H	-0.9199459843	 1.8071774967	 0.0228800172	 0.058648
H	 2.8487498159	 0.4065762527	-0.0304030134	 0.152098
H	 4.3985662716	 2.3823366569	-0.0331379551	 0.271215
H	 3.2449404337	 4.6106914854	-0.0027474226	 0.130699
H	 0.5691204094	 4.1046910785	 0.0235873452	 0.109088
149.2384	198.9646	269.8738	493.0844	552.9322	637.5992	658.3478	712.2504	762.4763	815.4465	845.2194	902.0443	981.7918	1043.1056	1075.3416	1102.4534	1154.1137	1252.1643	1329.3073	1395.0186	1443.2004	1462.0767	1526.8012	1586.5141	1782.8526	2868.5154	3248.5118	3274.6091	3280.5581	3671.4844
O=CC1=CNC=C1	O=Cc1c[nH]cc1	
InChI=1S/C5H5NO/c7-4-5-1-2-6-3-5/h1-4,6H	InChI=1S/C5H5NO/c7-4-5-1-2-6-3-5/h1-4,6H
