15
gdb 2990	5.41012	1.8293	1.67156	2.1647	57.64	-0.2653	-0.0364	0.229	775.3701	0.123958	-345.646841	-345.639691	-345.638747	-345.678239	25.927	
O	-0.3514572607	 1.3280725264	 0.0891553645	-0.430654
C	-0.0744001516	-0.0434070939	 0.0118109187	 0.027234
C	 0.8474307155	-0.3173778409	-1.1622912466	 0.147171
O	 1.2523363663	 0.5705641728	-1.8735517438	-0.262861
C	 0.5647361514	-0.5792066457	 1.2912667813	-0.014862
C	 1.5982450356	 0.2461193715	 2.0139073928	-0.256416
C	 0.2266874238	 0.0559049982	 2.6129537512	-0.267815
H	 0.1348048938	 1.7320969645	-0.6475988683	 0.296593
H	-1.0061920615	-0.6094614929	-0.1734544278	 0.095059
H	 1.1402848547	-1.3746597214	-1.3242351799	 0.097794
H	 0.7052847039	-1.6570246393	 1.2852127458	 0.085988
H	 2.4421239013	-0.2646488812	 2.463372746	 0.11096
H	 1.8202064836	 1.2251837131	 1.605203413	 0.123983
H	-0.4404228238	 0.9091389714	 2.5908691074	 0.136301
H	 0.1199032175	-0.5919568825	 3.4757453957	 0.111525
72.1868	125.0654	225.9795	266.9304	319.9625	397.1198	467.9711	586.2361	707.3501	783.4381	811.237	825.0775	864.9054	910.9656	996.0313	1043.7462	1063.2783	1072.6382	1091.4236	1135.349	1190.1206	1201.2981	1225.3445	1265.4335	1338.2071	1372.5623	1406.0808	1437.9831	1455.27	1498.8009	1812.4119	2926.7762	2942.9387	3138.4311	3140.4896	3146.1538	3224.7324	3238.903	3682.3042
OC(C=O)C1CC1	O[C@@H](C=O)C1CC1	
InChI=1S/C5H8O2/c6-3-5(7)4-1-2-4/h3-5,7H,1-2H2	InChI=1S/C5H8O2/c6-3-5(7)4-1-2-4/h3-5,7H,1-2H2/t5-/m0/s1
