11
gdb 178	8.35402	2.38993	1.87981	0.6411	54.16	-0.2383	-0.0315	0.2068	618.9851	0.081951	-285.217962	-285.211126	-285.210182	-285.248449	23.675	
C	-0.0351728226	 1.4942768396	 0.0163054347	-0.474907
C	 0.0061332328	-0.0141034799	 0.0441324809	 0.205372
N	 0.0772602359	-0.7149403185	 1.1227548258	-0.152626
O	 0.1103531366	 0.1074132045	 2.2468161865	-0.387076
C	-0.0345077457	-0.7366254602	-1.1826284192	 0.273111
C	-0.0721962015	-1.2833127801	-2.2546047081	-0.417737
H	 0.8578792843	 1.9027959091	 0.499457234	 0.151704
H	-0.0954825772	 1.8633731107	-1.0071077093	 0.134374
H	-0.8965879098	 1.8563160564	 0.586166862	 0.15171
H	 0.1623848841	-0.5315206017	 2.9661181339	 0.313808
H	-0.1042721368	-1.7853392298	-3.1898787412	 0.202268
69.0712	173.3281	194.1081	294.7696	394.5535	482.3974	540.4452	565.6503	572.7797	614.3861	660.1119	794.4263	987.7641	1045.616	1047.8628	1255.0318	1395.8453	1398.8305	1476.0698	1480.8119	1669.2947	2227.839	3048.7934	3106.8712	3156.8619	3503.7732	3815.2013
CC(=NO)C#C	CC(=NO)C#C	
InChI=1S/C4H5NO/c1-3-4(2)5-6/h1,6H,2H3	InChI=1S/C4H5NO/c1-3-4(2)5-6/h1,6H,2H3
