14
gdb 2064	5.0588	2.61575	1.79821	4.175	59.88	-0.2393	-0.0314	0.2079	680.8172	0.11637	-324.625415	-324.619449	-324.618505	-324.655101	22.623	
O	-0.007785698	-0.0359327776	-0.2299510569	-0.37884
C	-0.0109486174	 1.167364963	-0.0343664178	 0.38567
N	-1.1689935845	 1.8742711634	 0.1994673062	-0.326168
C	-1.2285277359	 3.3246749405	 0.0676165171	-0.165301
C	-0.0329574088	 3.966881229	 0.7756601924	-0.246186
C	 1.2415258834	 3.2504804503	 0.418215441	-0.067297
C	 1.2365965973	 1.9739011038	 0.0274011572	-0.132202
H	-2.0096492891	 1.3433050617	 0.0231054809	 0.244896
H	-1.2245277464	 3.6275932309	-0.9916461011	 0.108338
H	-2.1674192534	 3.6772884914	 0.5038695968	 0.114095
H	 0.0273760967	 5.0258744128	 0.5037092284	 0.114748
H	-0.1719748255	 3.933411902	 1.8660299124	 0.128241
H	 2.1782927214	 3.7928445636	 0.5189267337	 0.106707
H	 2.1421019501	 1.4290209452	-0.2127864202	 0.113298
134.5438	233.5307	322.1064	441.1055	468.0851	545.5408	594.6189	666.196	734.215	818.5174	849.6143	888.0893	974.4892	1004.3854	1015.1884	1079.4452	1121.5454	1157.4948	1224.3978	1267.4852	1319.0852	1365.814	1395.6731	1412.2893	1463.2239	1475.5871	1515.9292	1690.7862	1784.5476	2974.3872	3010.0717	3072.7087	3080.557	3160.0548	3209.7269	3609.3733
O=C1NCCC=C1	O=C1NCCC=C1	
InChI=1S/C5H7NO/c7-5-3-1-2-4-6-5/h1,3H,2,4H2,(H,6,7)	InChI=1S/C5H7NO/c7-5-3-1-2-4-6-5/h1,3H,2,4H2,(H,6,7)
