19
gdb 1808	3.48107	2.38418	1.82194	1.7246	66.69	-0.2584	0.0849	0.3432	801.5285	0.169765	-310.91014	-310.901848	-310.900904	-310.942327	30.885	
C	 0.4430355835	 1.5378420963	-0.1354457056	-0.389158
C	 0.0017304847	 0.0730741562	 0.0404917805	-0.024061
C	 0.2703713072	-0.7146677427	-1.2480454517	-0.40802
C	 0.6680799427	-0.5316128595	 1.2811664908	 0.428294
C	 0.1940080523	 0.0087769608	 2.6167769382	-0.462084
C	 1.2841215111	-1.8693936719	 1.2674837872	-0.231678
O	 2.0945554554	-0.6936234116	 1.1831895506	-0.278895
H	 1.5271349625	 1.5905422357	-0.2775776806	 0.13311
H	-0.0380667812	 1.9806225889	-1.012850828	 0.109517
H	 0.185537799	 2.1564532298	 0.7285591917	 0.112348
H	-1.0808325076	 0.0618762131	 0.2292847713	 0.07182
H	 1.3468758732	-0.818095304	-1.4192727335	 0.133291
H	-0.1730204328	-1.714255862	-1.2191643762	 0.11051
H	-0.1563729915	-0.1897304312	-2.1080504149	 0.109444
H	-0.8713998304	-0.2015253038	 2.7613377025	 0.118279
H	 0.7526305802	-0.4533342647	 3.4342507954	 0.124607
H	 0.3346446153	 1.0913468619	 2.6851525308	 0.127813
H	 1.3649477543	-2.4236667481	 2.2027230675	 0.103992
H	 1.2657006623	-2.486422073	 0.373101904	 0.110871
52.6069	181.8485	217.5795	244.3359	275.9021	297.9806	348.316	384.3864	408.151	469.1973	547.912	670.1332	812.0148	862.6516	918.4484	927.4654	938.3729	971.1861	1014.1347	1069.6595	1114.2111	1136.2339	1144.4713	1175.8471	1185.1213	1240.5024	1336.6068	1369.1753	1383.6166	1398.7436	1410.9614	1421.9402	1480.5279	1491.9482	1494.5424	1501.2262	1509.0307	1516.8153	1536.176	3008.4247	3035.8682	3038.8861	3042.0292	3085.5474	3103.024	3105.3095	3109.2092	3111.9764	3115.6096	3124.3214	3178.1543
CC(C)C1(C)CO1	CC(C)[C@@]1(C)CO1	
InChI=1S/C6H12O/c1-5(2)6(3)4-7-6/h5H,4H2,1-3H3	InChI=1S/C6H12O/c1-5(2)6(3)4-7-6/h5H,4H2,1-3H3/t6-/m1/s1
