16
gdb 2420	4.32599	3.32894	2.45938	1.9572	64.67	-0.2267	0.0926	0.3193	615.8041	0.13753	-288.545722	-288.539859	-288.538915	-288.574909	23.45	
C	-0.0049691753	 1.5228757272	-0.0183114335	-0.524179
C	 0.0215121773	 0.0167684996	-0.0438164386	 0.320939
C	 0.5255302609	-0.9447831843	-1.118581231	-0.222889
N	 0.0524749096	-1.9435018737	-0.0693662227	-0.159732
C	 0.5410838591	-0.9819442621	 1.0464492559	-0.034082
C	-0.8039410264	-1.0720884434	 1.7730755222	-0.260115
C	-1.1282657674	-0.9983013615	 0.2782274536	-0.034088
H	 1.0065758837	 1.9343871481	-0.107744031	 0.12228
H	-0.6007379539	 1.918656711	-0.8483595678	 0.122279
H	-0.4385752016	 1.8993274012	 0.9147190644	 0.120706
H	-0.0305432398	-1.0056798445	-2.0612115519	 0.094209
H	 1.6040503473	-0.9896749963	-1.3089924816	 0.094209
H	 1.5575979218	-1.0678497556	 1.4369086079	 0.077463
H	-1.0207452403	-2.024069107	 2.2644532629	 0.108052
H	-1.0970866942	-0.2205045946	 2.3919519359	 0.097485
H	-2.0844977108	-1.103542714	-0.2391536947	 0.077464
204.5633	254.977	291.0022	428.1959	446.2062	610.7127	702.3919	775.6628	856.5653	858.4818	874.4519	882.6449	915.9493	940.8381	1008.7105	1021.06	1022.151	1076.1118	1102.9699	1141.0495	1158.3795	1167.4616	1200.8839	1226.585	1226.7373	1251.5614	1291.6135	1349.9929	1409.3587	1486.3608	1487.2759	1494.634	1520.4124	3023.4821	3026.5782	3058.1539	3081.5959	3087.1375	3092.5697	3094.5339	3094.8667	3123.6201
CC12CN3C1CC23	C[C@@]12CN3[C@@H]1C[C@@H]23	
InChI=1S/C6H9N/c1-6-3-7-4(6)2-5(6)7/h4-5H,2-3H2,1H3	InChI=1S/C6H9N/c1-6-3-7-4(6)2-5(6)7/h4-5H,2-3H2,1H3/t4-,5+,6-
