17
gdb 1980	6.95818	1.37685	1.26766	1.8343	60.87	-0.254	0.0759	0.3299	947.1788	0.147771	-346.833271	-346.825496	-346.824551	-346.865288	28.311	
O	-0.1084083456	 1.4105847675	-0.2325032826	-0.42272
C	-0.0182938257	 0.0250019509	 0.0687692755	-0.092116
C	-1.4141128948	-0.557025965	 0.0108105985	 0.054319
C	-2.1138394463	-0.6716455035	-1.3722359124	-0.236165
C	-2.6671154491	-2.0407389213	-0.932844075	 0.146883
O	-2.6632399017	-3.0164540494	-1.9488311568	-0.431207
C	-1.5732989893	-2.0944666645	 0.1722712896	-0.292601
H	 0.7801961091	 1.7779528433	-0.2324127322	 0.285957
H	 0.6271551689	-0.49989789	-0.6551383744	 0.080484
H	 0.412713785	-0.1395807187	 1.0709160071	 0.082029
H	-2.0499517159	-0.0196867713	 0.7217659879	 0.078067
H	-2.8223667038	 0.1037992565	-1.6672916887	 0.102283
H	-1.3809818658	-0.8121583287	-2.1731716812	 0.108319
H	-3.6663631227	-1.9378813247	-0.4849870622	 0.064322
H	-3.0439677583	-3.8259885047	-1.5937768855	 0.280081
H	-0.6949671273	-2.6270731833	-0.2078642371	 0.101594
H	-1.8390628367	-2.4904014631	 1.1558130693	 0.090473
77.9109	108.1494	209.9967	259.1984	265.2512	357.2432	390.1467	433.9176	466.0318	606.9443	789.5263	811.4276	904.7081	947.6646	952.6392	1024.6195	1035.1354	1064.1822	1090.4639	1119.4644	1160.7411	1197.343	1217.2748	1238.1858	1254.7834	1266.9002	1279.3311	1290.7978	1330.8355	1368.7878	1430.2021	1461.0367	1469.7358	1498.4917	1520.7028	2952.2237	2979.6271	2990.1322	3046.0375	3056.8165	3062.9436	3106.4751	3125.2388	3814.9521	3829.5815
OCC1CC(O)C1	OC[C@H]1C[C@@H](O)C1	
InChI=1S/C5H10O2/c6-3-4-1-5(7)2-4/h4-7H,1-3H2	InChI=1S/C5H10O2/c6-3-4-1-5(7)2-4/h4-7H,1-3H2/t4-,5+
