12
gdb 4696	6.77986	1.34463	1.12374	5.2236	66.53	-0.2207	-0.0218	0.1989	962.1383	0.08689	-373.760273	-373.753457	-373.752513	-373.791185	25.102	
N	 0.0519418722	 1.3529066804	 0.1379160596	-0.595135
C	-0.0093782692	-0.0205785526	 0.0361744014	 0.428948
N	-1.1240279143	-0.7317566657	 0.0256579113	-0.303423
C	-0.7220643954	-2.0370520665	 0.0027861532	-0.155175
C	 0.6507716819	-2.1327046245	-0.0121737857	 0.198142
N	 1.0977616139	-0.806465394	 0.0093573631	-0.367311
C	 1.5256007559	-3.2316984495	-0.0547906352	 0.19411
N	 2.2584063365	-4.1308957567	-0.0877802294	-0.349361
H	 0.7589127447	 1.8024253884	-0.4274999933	 0.259134
H	-0.8589537114	 1.7700877991	 0.0032059907	 0.273794
H	-1.4306066903	-2.8505447767	-0.0157611519	 0.13697
H	 2.0574773455	-0.5136515617	 0.0883328463	 0.279307
138.4981	154.2582	273.3046	300.4256	389.2957	467.2729	514.7952	552.4779	578.742	648.2108	655.785	743.0301	766.687	878.9703	1010.5328	1039.9477	1096.312	1207.4037	1247.6629	1315.3639	1368.4678	1482.3539	1568.774	1609.4375	1659.8997	2329.4267	3262.7979	3557.8234	3658.1152	3664.1634
NC1=NC=C(N1)C#N	Nc1ncc([nH]1)C#N	
InChI=1S/C4H4N4/c5-1-3-2-7-4(6)8-3/h2H,(H3,6,7,8)	InChI=1S/C4H4N4/c5-1-3-2-7-4(6)8-3/h2H,(H3,6,7,8)
