12
gdb 3952	7.78453	1.97452	1.59065	3.3514	51.43	-0.2479	0.0036	0.2514	715.1474	0.091656	-356.683566	-356.677201	-356.676257	-356.714708	21.929	
O	-0.0102069124	 1.4231754106	 0.0089497981	-0.420823
C	 0.0032004077	 0.0044558209	 0.0021026277	-0.176925
C	-1.4152100282	-0.46348888	 0.0121856146	 0.312365
C	-2.5700270855	 0.2800450008	 0.0234094301	-0.145846
N	-3.5502924017	-0.6553564629	 0.0294070511	-0.156503
N	-3.0478318388	-1.9020015454	 0.0207178203	-0.116043
N	-1.7501924715	-1.7850684867	 0.0110407375	-0.258572
H	 0.9002025879	 1.7308504438	 0.0019005972	 0.294035
H	 0.5142028552	-0.3933117857	-0.8885550541	 0.113806
H	 0.5295282954	-0.4018464431	 0.8798707198	 0.113855
H	-2.7556232569	 1.3390921606	 0.027984695	 0.159038
H	-4.5493830412	-0.5272198229	 0.0384189827	 0.281612
35.7069	201.1134	211.427	274.9678	455.432	574.7919	669.1626	703.3949	727.7602	796.1256	986.9792	1034.7728	1050.1196	1053.7028	1088.7222	1127.1988	1219.398	1237.7062	1265.6592	1308.0918	1349.6871	1453.1851	1499.7527	1516.0345	1606.1077	2976.711	2998.9254	3306.6387	3660.5629	3842.6396
OCC1=CNN=N1	OCc1c[nH]nn1	
InChI=1S/C3H5N3O/c7-2-3-1-4-6-5-3/h1,7H,2H2,(H,4,5,6)	InChI=1S/C3H5N3O/c7-2-3-1-4-6-5-3/h1,7H,2H2,(H,4,5,6)
