7
gdb 3827	10.19357	2.07678	1.72528	1.3668	43.86	-0.3473	-0.1177	0.2295	614.0591	0.031734	-370.291993	-370.286954	-370.28601	-370.320977	16.954	
N	 0.0461718643	-1.1357474523	-0.0045065423	-0.291372
C	-0.0045713762	 0.018209309	 0.002745139	 0.308042
C	-0.0488001393	 1.4372906047	 0.0114251983	 0.327767
N	-1.1481198182	 2.1455918499	 0.0297882491	-0.111853
O	-0.7248334686	 3.4144961149	 0.0315185318	-0.119849
N	 0.6829462596	 3.4319886433	 0.0132719279	 0.063233
N	 1.0784015583	 2.2445317206	 0.0013360062	-0.175968
184.7099	190.2071	506.3837	550.6973	597.7888	621.4686	675.0501	769.107	973.841	1054.8506	1117.3134	1268.9607	1489.6967	1548.82	2380.7083
N#CC1=NON=N1	N#Cc1nonn1	
InChI=1S/C2N4O/c3-1-2-4-6-7-5-2	InChI=1S/C2N4O/c3-1-2-4-6-7-5-2
