14
gdb 3420	4.54536	3.03626	2.10788	4.047	56.63	-0.2494	-0.0077	0.2417	624.8298	0.115106	-324.585556	-324.579719	-324.578775	-324.615421	21.958	
O	 0.037262268	 0.0187658152	-0.1780209576	-0.304113
C	 0.004714867	 1.2120154058	-0.0848824268	 0.387364
C	-1.2578802462	 2.0739969865	 0.0932857716	-0.337239
C	-0.7879679172	 3.5341226003	-0.0074112288	-0.239635
C	 0.7364075666	 3.4412635135	 0.0430718351	-0.010623
C	 1.3815855113	 2.7435779551	 1.1732050685	-0.251469
N	 1.1804865952	 2.041815289	-0.1273959745	-0.131872
H	-1.9985093666	 1.7974989476	-0.660005699	 0.143104
H	-1.6969089978	 1.8248339375	 1.0645904485	 0.140335
H	-1.0877075554	 3.9742985091	-0.9624982008	 0.120089
H	-1.1900207113	 4.1734144344	 0.7835859848	 0.116224
H	 1.3116232555	 4.1728609475	-0.5158061953	 0.104765
H	 2.4220617634	 2.9291111958	 1.418968841	 0.136463
H	 0.7661102674	 2.4323606026	 2.0144575732	 0.126606
77.4295	224.5207	350.3102	473.9953	558.2947	638.2778	666.7835	728.8068	816.9128	823.2919	857.6182	946.9882	962.2742	1012.7695	1052.519	1095.3745	1102.887	1130.2301	1166.0691	1177.8734	1236.5258	1271.6067	1287.9965	1328.0177	1393.4425	1459.2154	1496.8618	1511.8071	1866.582	3058.6419	3067.1844	3095.0682	3110.4235	3117.6925	3159.163	3202.0861
O=C1CCC2CN12	O=C1CC[C@H]2CN12	
InChI=1S/C5H7NO/c7-5-2-1-4-3-6(4)5/h4H,1-3H2	InChI=1S/C5H7NO/c7-5-2-1-4-3-6(4)5/h4H,1-3H2/t4-,6?/m0/s1
