19
gdb 1658	4.59986	1.56233	1.41241	2.4591	67.7	-0.2378	-0.0066	0.2313	970.1419	0.168905	-310.954565	-310.945391	-310.944447	-310.988708	31.937	
C	-0.1412398858	 1.5304719386	 0.0571989969	-0.37609
C	 0.1164625637	 0.0275750799	-0.0024091648	-0.285189
C	 0.7437838115	-0.4392911001	-1.308616926	 0.39167
O	 1.1153079188	 0.3418084463	-2.1558942641	-0.318622
C	 0.8596105944	-1.9540525267	-1.5120505796	-0.058405
C	-0.3698279864	-2.4273767878	-2.3151318245	-0.385585
C	 2.1660236313	-2.3145928616	-2.2271521843	-0.384338
H	 0.7843531312	 2.0881625111	-0.1043100724	 0.134164
H	-0.843354729	 1.8376959796	-0.7226703343	 0.127821
H	-0.5566760925	 1.8161760186	 1.0276439862	 0.108343
H	 0.791815941	-0.290272743	 0.8058722272	 0.123544
H	-0.8045821069	-0.5482414064	 0.1627843043	 0.118278
H	 0.8303896742	-2.437429046	-0.5273342718	 0.074097
H	-0.3824534028	-1.9543464998	-3.3019686231	 0.135662
H	-0.3384997021	-3.5122711582	-2.4546332269	 0.118838
H	-1.3094645927	-2.1818407879	-1.8093744381	 0.115111
H	 3.0386693819	-2.0470315065	-1.6232280307	 0.113636
H	 2.2108294701	-3.388676643	-2.4318822644	 0.107688
H	 2.2377038298	-1.7725355969	-3.1733715795	 0.13938
34.6264	75.7337	180.0404	191.9168	204.6523	241.2783	254.0502	306.3321	325.6862	445.7915	567.1247	626.83	761.4609	806.7927	878.098	932.6869	971.6656	989.5153	1025.6768	1049.1852	1118.2277	1123.4633	1139.1133	1198.9865	1275.6964	1329.2548	1352.9103	1380.6998	1394.253	1412.387	1416.0821	1448.6502	1485.6542	1489.553	1492.2679	1497.9793	1501.6392	1511.8294	1804.9706	3009.1129	3026.1217	3033.6819	3039.0974	3041.2572	3050.5952	3102.3822	3106.5638	3113.1561	3119.6192	3127.8197	3128.5266
CCC(=O)C(C)C	CCC(=O)C(C)C	
InChI=1S/C6H12O/c1-4-6(7)5(2)3/h5H,4H2,1-3H3	InChI=1S/C6H12O/c1-4-6(7)5(2)3/h5H,4H2,1-3H3
