15
gdb 1874	6.08998	1.98634	1.58363	4.4525	56.82	-0.2631	0.0158	0.2789	770.8415	0.126141	-345.709596	-345.703023	-345.702079	-345.740109	24.142	
C	-0.288686654	 1.5153442194	 0.0041629122	-0.412136
C	 0.1005583078	 0.0400863211	 0.0210677818	 0.009307
C	 1.0319751654	-0.3743250251	-1.1328606377	-0.083455
O	 1.74930093	-1.5286910307	-0.6709375138	-0.215965
C	 1.7372985146	-1.5927564625	 0.6916877339	 0.427201
O	 2.307932782	-2.4524352287	 1.29532846	-0.333154
C	 0.915539167	-0.4270277092	 1.2330671486	-0.365507
H	 0.5963042106	 2.1563809699	 0.0862054002	 0.121232
H	-0.8086235243	 1.7777206278	-0.923439341	 0.122751
H	-0.9555459178	 1.7572410544	 0.8371434348	 0.12739
H	-0.8066462758	-0.5732494451	-0.0414973324	 0.094011
H	 0.5034325935	-0.6505767921	-2.047974897	 0.124602
H	 1.753203494	 0.419083725	-1.370441854	 0.110669
H	 1.6135187014	 0.3500542356	 1.5711243783	 0.134171
H	 0.3288846757	-0.7418400898	 2.096925796	 0.138883
107.8414	188.2795	232.6486	281.1039	410.9114	496.0681	528.2096	603.8297	693.3863	839.3454	865.0895	899.4471	948.457	965.5383	1062.7859	1080.3343	1119.4956	1161.2006	1179.1393	1202.0777	1260.9746	1275.2611	1349.1045	1360.6365	1406.0213	1418.5128	1464.8821	1497.2216	1500.4471	1521.5874	1887.666	3018.4344	3029.5766	3031.834	3043.1388	3097.2991	3105.0648	3107.9565	3128.8282
CC1COC(=O)C1	C[C@H]1COC(=O)C1	
InChI=1S/C5H8O2/c1-4-2-5(6)7-3-4/h4H,2-3H2,1H3	InChI=1S/C5H8O2/c1-4-2-5(6)7-3-4/h4H,2-3H2,1H3/t4-/m1/s1
