12
gdb 4747	7.15073	1.34121	1.13068	4.4168	63.31	-0.2243	-0.0723	0.152	962.2454	0.08464	-414.694677	-414.687839	-414.686894	-414.72576	24.716	
N	 0.0259384503	 1.3823637237	 0.1502239064	-0.598103
C	-0.029659107	 0.0032554433	 0.046412106	 0.271895
C	-1.1072325807	-0.8454831868	 0.011838939	-0.09831
O	-0.6333483527	-2.1225834301	-0.0211388324	-0.142773
C	 0.7064256517	-1.9917673971	-0.003101168	 0.297129
C	 1.5630097404	-3.1813876849	-0.0304813148	 0.080644
O	 1.1592324378	-4.3188981456	-0.0734956232	-0.260676
N	 1.1189330736	-0.7505799809	 0.0354328343	-0.322931
H	 0.9163739492	 1.7536063479	-0.1506848966	 0.262757
H	-0.7476795915	 1.8737501504	-0.2730791784	 0.255211
H	-2.1756783873	-0.7205195707	 0.0091555289	 0.149789
H	 2.6391570562	-2.9187832592	-0.0076334614	 0.105369
112.5139	182.7434	253.7864	271.0925	351.1207	371.8605	516.947	623.4088	679.6693	698.6473	719.9544	757.4315	790.9559	984.4515	1023.8118	1031.3867	1098.655	1146.1101	1260.2876	1374.1582	1392.9538	1404.9606	1553.3454	1622.6986	1659.752	1797.0726	2944.9313	3297.7545	3565.055	3665.3055
NC1=COC(C=O)=N1	Nc1coc(C=O)n1	
InChI=1S/C4H4N2O2/c5-3-2-8-4(1-7)6-3/h1-2H,5H2	InChI=1S/C4H4N2O2/c5-3-2-8-4(1-7)6-3/h1-2H,5H2
