14
gdb 4709	6.92077	1.27029	1.08053	4.9693	69.87	-0.2383	-0.0516	0.1868	1037.336	0.107891	-378.783702	-378.776226	-378.775282	-378.816288	26.04	
C	-0.0066746924	 1.4904967795	 0.061903728	-0.501238
C	-0.0046175872	 0.0023716634	-0.0309101114	 0.352892
N	-0.0648178698	-0.6988226016	-1.1570868501	-0.285316
C	-0.0379482901	-2.0071437719	-0.7823498894	-0.133117
C	 0.040529301	-2.1282568222	 0.5928414228	 0.208473
N	 0.0603117305	-0.8168137471	 1.0491464345	-0.345173
C	 0.0956655128	-3.2794233984	 1.4712457091	 0.064866
O	 0.0800675042	-4.43387508	 1.1015434599	-0.272203
H	 0.9022844896	 1.8674242888	 0.5439128978	 0.1406
H	-0.0608401878	 1.9015222239	-0.9463843591	 0.166801
H	-0.8645929962	 1.8592308003	 0.6352207631	 0.140827
H	-0.0748481558	-2.8118586086	-1.5004025279	 0.140496
H	 0.1135812255	-0.5300905657	 2.0134497298	 0.270164
H	 0.1560364658	-3.0251150505	 2.556819753	 0.051927
43.1327	117.6403	169.5726	236.8847	299.0625	340.6474	488.5293	551.2221	649.8368	694.7826	697.9805	774.6165	898.4264	989.764	1007.2037	1022.5353	1049.5907	1062.6038	1180.0905	1214.3731	1312.5431	1360.9976	1407.0346	1421.7087	1454.1939	1482.913	1495.4864	1525.5259	1600.0581	1784.262	2836.1407	3035.8701	3087.7412	3155.0522	3261.2245	3649.4356
CC1=NC=C(N1)C=O	Cc1ncc([nH]1)C=O	
InChI=1S/C5H6N2O/c1-4-6-2-5(3-8)7-4/h2-3H,1H3,(H,6,7)	InChI=1S/C5H6N2O/c1-4-6-2-5(3-8)7-4/h2-3H,1H3,(H,6,7)
