15
gdb 1731	5.79521	1.44455	1.27248	1.9962	66.57	-0.2449	0.0353	0.2802	971.6051	0.122355	-308.476903	-308.468712	-308.467768	-308.510351	28.038	
C	-0.0017423722	 1.4522451553	 0.0111714357	-0.502395
C	 0.0210609697	-0.0026414942	 0.022984358	 0.105873
C	 0.0245777276	-1.206962796	 0.0371105586	 0.028386
C	 0.0715240789	-2.6509146368	 0.0261239816	 0.228598
C	 1.2678048712	-3.2682058253	-0.66888266	-0.465887
C	-0.6412712046	-3.4024137121	 1.0808018582	-0.210384
O	-1.1865412658	-3.3113201869	-0.230747792	-0.260051
H	 0.7132154467	 1.8555792709	-0.714166448	 0.150754
H	-0.9953046691	 1.8266534719	-0.2586115713	 0.1549
H	 0.2524346833	 1.8636648365	 0.9942829875	 0.150021
H	 2.1978320741	-2.9479492262	-0.189577763	 0.129209
H	 1.203411041	-4.3584814879	-0.6323834179	 0.126246
H	 1.3005420228	-2.9546815571	-1.7163594219	 0.135575
H	-0.2699850052	-4.3852992222	 1.3712601098	 0.111675
H	-1.1798833784	-2.8567691099	 1.8534588346	 0.11748
25.8654	104.4967	130.9348	202.0147	300.4775	321.8953	342.1194	370.6056	530.3787	550.5769	605.6865	788.2887	866.6762	923.6864	1025.2515	1051.2447	1054.6509	1065.4266	1097.8879	1137.1508	1167.166	1291.44	1370.483	1408.0574	1413.9218	1476.4442	1477.3879	1478.4235	1494.0558	1520.8201	2370.1608	3028.2614	3043.7012	3077.5787	3089.2419	3091.5099	3115.2831	3128.3021	3170.1903
CC#CC1(C)CO1	CC#C[C@@]1(C)CO1	
InChI=1S/C6H8O/c1-3-4-6(2)5-7-6/h5H2,1-2H3	InChI=1S/C6H8O/c1-3-4-6(2)5-7-6/h5H2,1-2H3/t6-/m0/s1
