11
gdb 980	3.71229	3.65256	1.8566	0.9287	48.31	-0.2056	0.009	0.2146	621.2675	0.079623	-376.594067	-376.587743	-376.586799	-376.624388	22.479	
N	 0.3034151227	 1.4104237306	-0.0336325379	-0.603395
C	 0.0543457827	 0.0436269905	-0.0070297488	 0.209675
C	-1.0458576685	-0.7560330195	 0.0071368293	 0.271862
O	-2.337038239	-0.3646773686	 0.0752223622	-0.436792
N	-0.6834197664	-2.0822760838	-0.0747061106	-0.337027
C	 0.6139903718	-2.0435834794	-0.1231050427	 0.075738
O	 1.142551102	-0.8124704558	-0.1007937914	-0.145073
H	 0.4089646538	 1.8247452587	 0.8869716165	 0.251486
H	-0.419769733	 1.9104776761	-0.535280978	 0.25792
H	-2.871151706	-1.1668164085	 0.0363597303	 0.305804
H	 1.2995239999	-2.8751602203	-0.164331479	 0.149801
80.7258	242.9053	276.9709	332.1129	342.0806	496.9588	629.4396	666.0304	718.3877	730.9446	781.4515	814.514	956.927	1060.9166	1152.4373	1187.6372	1248.5026	1323.4013	1349.8435	1429.3185	1545.5547	1654.7938	1740.9781	3273.9297	3503.4261	3598.0846	3812.3534
NC1=C(O)N=CO1	Nc1c(O)nco1	
InChI=1S/C3H4N2O2/c4-2-3(6)5-1-7-2/h1,6H,4H2	InChI=1S/C3H4N2O2/c4-2-3(6)5-1-7-2/h1,6H,4H2
