15
gdb 1564	7.05593	1.21337	1.09909	1.9251	54.77	-0.27	-0.0386	0.2314	1020.0011	0.122637	-382.790431	-382.782236	-382.781291	-382.82329	28.066	
O	-0.1047302418	 1.4724586783	-0.0799608923	-0.422613
C	 0.0132448645	 0.0648310541	 0.0529517514	-0.074676
C	-1.3920959035	-0.5202188219	-0.0149120715	-0.191381
C	-1.3782813575	-2.0534613506	 0.0856776876	 0.044552
O	-0.8029133569	-2.4897940192	 1.2879971447	-0.434727
C	-2.7826892055	-2.6032094064	-0.0544521824	 0.138567
O	-3.2750777018	-3.3119081195	 0.789815879	-0.260014
H	 0.7591317338	 1.8624131929	 0.0815100804	 0.287976
H	 0.6296838125	-0.3638852867	-0.7554370933	 0.083157
H	 0.4763586933	-0.2183347944	 1.0075887493	 0.114898
H	-1.9920170278	-0.1065912876	 0.8032549702	 0.119442
H	-1.8602098927	-0.2139094652	-0.9586224186	 0.106776
H	-0.8059976324	-2.4493427259	-0.7758460636	 0.092745
H	-1.4745363108	-3.0481964318	 1.7111475266	 0.294989
H	-3.3342326435	-2.3178882561	-0.9734745876	 0.100308
82.34	102.934	114.5767	210.6648	248.5793	305.0789	345.8221	375.1084	434.8338	518.5092	754.817	801.989	846.0929	955.1228	969.6661	1047.5775	1081.6219	1125.5038	1167.299	1227.9579	1229.7013	1276.5766	1312.1202	1324.9972	1359.6408	1400.3578	1439.5871	1460.1383	1480.0338	1530.0414	1814.1793	2919.0164	2936.8159	2959.6363	3028.2838	3036.4772	3086.6012	3688.1062	3833.0073
OCCC(O)C=O	OCC[C@@H](O)C=O	
InChI=1S/C4H8O3/c5-2-1-4(7)3-6/h3-5,7H,1-2H2	InChI=1S/C4H8O3/c5-2-1-4(7)3-6/h3-5,7H,1-2H2/t4-/m1/s1
