10
gdb 3930	8.56693	2.25918	1.78774	3.2492	51.55	-0.2951	-0.0701	0.225	630.5913	0.068808	-355.508682	-355.503415	-355.502471	-355.537916	18.265	
O	-0.0622958854	 0.002249245	-0.0010658032	-0.238731
C	 0.0218466738	 1.1920948836	 0.0076953145	 0.210361
N	 1.2478906897	 1.90084164	-0.0003774102	 0.07849
N	 2.45933918	 1.3268964008	-0.0182526771	-0.187465
C	 3.2833831794	 2.3599262394	-0.0194808698	-0.032447
C	 2.5254880662	 3.5578611172	-0.0016904153	-0.049148
N	 1.2425599335	 3.2467512602	 0.0100771587	-0.202327
H	-0.8118085399	 1.9116457547	 0.0221081023	 0.131368
H	 4.3527469968	 2.2176866552	-0.0324985315	 0.144846
H	 2.8521311759	 4.5858599039	 0.0026293116	 0.145052
140.9495	247.3524	274.7327	536.9539	674.8292	681.5029	824.1691	875.2588	922.069	969.1756	974.1888	1034.55	1071.2876	1187.695	1272.4867	1310.8782	1382.8382	1411.1742	1434.6759	1543.2357	1860.4618	3031.9721	3262.7406	3278.1935
O=CN1N=CC=N1	O=Cn1nccn1	
InChI=1S/C3H3N3O/c7-3-6-4-1-2-5-6/h1-3H	InChI=1S/C3H3N3O/c7-3-6-4-1-2-5-6/h1-3H
