8
gdb 484	619867.68314	1.33455	1.33454	0.0151	72.39	-0.2465	-0.0565	0.19	802.1485	0.046718	-229.615446	-229.609222	-229.608278	-229.639949	21.875	
C	 0.0719818282	-5.1385039879	-0.0278587036	-0.648175
C	 0.0543328572	-3.9294066999	-0.0166248333	 0.196033
C	 0.0358450624	-2.576568101	-0.0079170201	 0.254436
C	 0.0197902488	-1.3592065444	-0.0008214843	 0.25414
C	 0.0021556424	-0.006335142	 0.0034918757	 0.196192
C	-0.0137242873	 1.202835961	 0.0060316784	-0.648308
H	 0.088613829	-6.1997587615	-0.0419759731	 0.197841
H	-0.0273483707	 2.2642226759	 0.0054155103	 0.197843
111.0659	275.9347	276.8643	463.497	463.9915	487.6128	488.7844	571.8922	582.288	613.7613	615.6039	639.1508	1213.374	2121.929	2238.9467	2328.1314	3506.9307	3507.1384
C#CC#CC#C	C#CC#CC#C	
InChI=1S/C6H2/c1-3-5-6-4-2/h1-2H	InChI=1S/C6H2/c1-3-5-6-4-2/h1-2H
