12
gdb 4652	7.31154	1.28066	1.09106	5.5398	64.41	-0.2146	-0.0219	0.1927	986.7287	0.08538	-377.563975	-377.557088	-377.556144	-377.595016	25.311	
N	 0.0881161773	 1.3669791674	 0.1613939916	-0.593854
C	-0.0670570663	-0.0003117125	 0.050818547	 0.421295
C	-1.1447682669	-0.8310966457	 0.0199552512	-0.401275
C	-0.5953291513	-2.1667869052	-0.0022365558	 0.178098
C	 0.7604194715	-2.0342463549	 0.0114205362	-0.114205
O	 1.0906740712	-0.7138815482	 0.0463075406	-0.165377
C	-1.3155166731	-3.3864479184	-0.039138587	 0.199649
N	-1.9149307037	-4.3767956816	-0.0707649438	-0.341465
H	 0.9287344348	 1.7129018367	-0.2826080217	 0.264405
H	-0.7260155558	 1.8888618883	-0.1296616607	 0.265253
H	-2.1868477784	-0.5602341841	 0.0122757157	 0.124886
H	 1.5761135906	-2.7353781218	-0.0035445833	 0.162591
139.2067	153.8358	196.3053	304.0343	391.4899	515.0562	520.0833	576.0166	627.7425	654.4124	695.797	716.8032	750.3326	774.4811	959.8667	997.0585	1091.1697	1165.0522	1197.1107	1256.9872	1322.6147	1432.6416	1591.9534	1623.4053	1677.8794	2350.3087	3279.7465	3300.4256	3556.4183	3659.3416
NC1=CC(=CO1)C#N	Nc1cc(co1)C#N	
InChI=1S/C5H4N2O/c6-2-4-1-5(7)8-3-4/h1,3H,7H2	InChI=1S/C5H4N2O/c6-2-4-1-5(7)8-3-4/h1,3H,7H2
