18
gdb 2371	4.21618	1.99909	1.5426	1.3809	64.5	-0.2248	0.0729	0.2977	848.0778	0.158422	-326.941251	-326.932945	-326.932001	-326.973478	30.215	
C	 0.4705967487	-2.3945405564	-1.3480076072	-0.400887
C	 0.102998009	-1.6681680408	-0.0525573641	 0.118914
O	 0.9254338605	-0.5176780778	 0.1505705912	-0.433805
C	-1.3675978119	-1.2967069905	-0.0299605822	 0.002213
C	-2.3863066772	-2.1801282163	 0.6105211448	-0.256372
N	-2.0702703747	-0.8775292367	 1.1786375644	-0.083123
C	-1.3591735736	-0.8365063899	 2.4502003796	-0.309322
H	 1.5422753044	-2.6089851391	-1.3673977552	 0.12477
H	-0.0803895264	-3.33545846	-1.443706295	 0.120025
H	 0.2299363315	-1.7757233059	-2.2213010464	 0.10797
H	 0.3353647759	-2.3187424831	 0.7962522358	 0.087644
H	 0.7144581045	 0.1190294836	-0.541844763	 0.276951
H	-1.6718445099	-0.7288250433	-0.9131268632	 0.077274
H	-3.3779330325	-2.296018846	 0.1803233182	 0.112876
H	-2.0117412016	-3.0643156091	 1.1280087231	 0.102791
H	-0.7385469722	-1.7224310629	 2.6555087022	 0.099042
H	-0.7101868443	 0.0426032165	 2.4708367045	 0.135364
H	-2.0951216204	-0.7505915122	 3.2558852225	 0.117676
77.5189	144.6548	205.2538	227.4749	252.0173	276.2951	335.0848	373.2139	395.3203	501.9579	566.1105	753.2442	812.6537	893.0886	921.0927	983.9932	1030.8538	1069.9543	1089.4098	1098.0351	1127.8117	1130.0216	1165.1586	1196.1966	1205.7119	1266.569	1325.2395	1341.8413	1400.022	1413.4473	1430.8748	1449.6587	1485.4379	1490.7226	1495.0949	1503.9812	1513.093	2981.8251	3027.5297	3057.6875	3068.7847	3074.1547	3077.9448	3099.5861	3119.57	3121.5865	3167.1047	3795.1678
CC(O)C1CN1C	C[C@@H](O)[C@H]1CN1C	
InChI=1S/C5H11NO/c1-4(7)5-3-6(5)2/h4-5,7H,3H2,1-2H3	InChI=1S/C5H11NO/c1-4(7)5-3-6(5)2/h4-5,7H,3H2,1-2H3/t4-,5-,6?/m1/s1
