15
gdb 4807	5.67499	0.84043	0.73485	7.3182	79.69	-0.1896	-0.1091	0.0805	1495.7584	0.113196	-399.763237	-399.753055	-399.752111	-399.803094	32.998	
N	 1.0275229768	 0.0989605871	-0.1413369875	-0.695113
H	 1.2951846038	-0.6422699397	 0.5007300825	 0.24605
H	 1.8356786986	 0.7110770507	-0.216000609	 0.247221
H	 0.9244530098	-0.3408695932	-1.0519677255	 0.245976
C	-1.6067681042	 2.0333053101	 0.8696049709	-0.432068
C	-1.4557241176	 3.3442670292	 1.1214908084	 0.451815
C	-2.2563439338	 4.4227082086	 1.5351562556	-0.422237
C	-1.4730157866	 5.617079438	 1.6205006126	 0.339135
O	-1.7111350262	 6.7859859887	 1.9282946107	-0.431602
C	-0.1549481186	 5.0997789516	 1.2135822214	-0.036089
O	-0.1152890154	 3.8337635582	 0.928900151	-0.136888
H	-2.5832889286	 1.5800164501	 0.9885897699	 0.138369
H	-0.7689262656	 1.4180907076	 0.5480851203	 0.193658
H	-3.309999852	 4.3391770164	 1.7521640602	 0.123428
H	 0.7800650697	 5.6447330566	 1.1236166686	 0.168345
4.7994	19.1498	36.7904	112.7414	155.913	172.6047	197.9596	305.9649	333.5017	472.9639	576.6048	625.5939	643.8178	710.2157	731.8547	796.3107	821.3765	925.1819	940.5131	958.6432	990.0227	1105.709	1143.6427	1190.4049	1269.8861	1300.1587	1445.6614	1470.259	1677.8287	1679.8763	1683.2337	1727.2276	3117.3925	3199.2633	3247.7702	3256.7667	3468.208	3585.7203	3585.9832	4.7996	19.1498	36.7903	112.7414	155.913	172.6047	197.9595	305.9648	333.5018	472.9639	576.6047	625.5939	643.8178	710.2157	731.8547	796.3106	821.3764	925.1821	940.5131	958.6431	990.0227	1105.7091	1143.6428	1190.4048	1269.886	1300.1589	1445.6613	1470.259	1677.8287	1679.8763	1683.2337	1727.2277	3117.3925	3199.2633	3247.7702	3256.7667	3468.208	3585.7203	3585.9832
[NH3+]CC1=CC([O-])=CO1	N.C=C1[CH]C(=O)[CH]O1	
InChI=1S/C5H7NO2/c6-2-5-1-4(7)3-8-5/h1,3,7H,2,6H2	InChI=1S/C5H4O2.H3N/c1-4-2-5(6)3-7-4;/h2-3H,1H2;1H3
