17
gdb 4909	5.04114	1.24357	1.06444	0.9465	71.14	-0.1788	0.0647	0.2435	1118.2608	0.142528	-363.902024	-363.893722	-363.892777	-363.934853	30.766	
C	 0.0388280491	 1.5515687754	-0.1550613515	-0.360162
C	-0.0217244911	 0.0381010111	 0.1128369751	-0.295032
C	-1.4140519962	-0.5220801488	 0.074436166	 0.311462
C	-2.122251948	-1.0178616771	 1.1392361538	-0.201267
N	-3.3692643473	-1.4133269296	 0.6806355458	-0.296224
C	-3.4465090689	-1.1728161359	-0.6581661569	 0.39499
O	-4.6028461201	-1.5048341789	-1.2898193902	-0.43634
C	-2.2626669426	-0.6204756481	-1.0814905257	-0.401742
H	 1.0706716378	 1.9172954695	-0.1237780079	 0.103436
H	-0.3747098934	 1.7946456707	-1.1391000831	 0.114012
H	-0.5427999399	 2.101595362	 0.5914066867	 0.115514
H	 0.6087428251	-0.4776642394	-0.6238936591	 0.09779
H	 0.4221751486	-0.1738283269	 1.0927338843	 0.094101
H	-1.853833101	-1.1263183771	 2.1773729285	 0.109866
H	-4.107147261	-1.8251791024	 1.2238142185	 0.26275
H	-4.5119499367	-1.2761310335	-2.2194038908	 0.306375
H	-2.0220815344	-0.3239657409	-2.0915045335	 0.080472
57.2522	132.058	201.6473	226.0925	264.4602	308.7085	369.1699	440.9579	451.7976	577.5451	637.5427	673.7168	685.036	732.5184	750.7681	788.327	946.8764	995.5894	1016.8688	1062.3478	1087.4208	1115.7324	1168.9986	1189.2069	1263.2284	1296.0235	1342.545	1361.4923	1405.2146	1420.8777	1482.8126	1495.5802	1506.142	1542.9019	1577.2864	1638.4551	3012.8088	3031.8803	3053.2111	3100.9753	3107.6615	3235.8866	3265.6221	3689.7688	3851.3796
CCC1=CNC(O)=C1	CCc1c[nH]c(O)c1	
InChI=1S/C6H9NO/c1-2-5-3-6(8)7-4-5/h3-4,7-8H,2H2,1H3	InChI=1S/C6H9NO/c1-2-5-3-6(8)7-4-5/h3-4,7-8H,2H2,1H3
