18
gdb 3601	5.19489	1.88303	1.68633	1.3454	67.72	-0.2188	0.0934	0.3122	815.2373	0.160302	-289.78994	-289.782601	-289.781657	-289.821387	27.426	
C	 0.2042104327	 1.5325686165	-0.2336058156	-0.313163
N	 0.0392521527	 0.1072514348	 0.019452587	-0.088704
C	 1.2291619144	-0.7282908248	-0.0897393902	-0.252795
C	 0.6155024892	-0.4625510268	 1.2446144737	-0.004219
C	 1.2765659837	 0.3628574376	 2.3103535819	-0.00803
C	 2.3241716451	-0.2689334642	 3.1972766534	-0.271457
C	 2.7076376132	 0.8413550498	 2.254932743	-0.257314
H	 1.1729563463	 1.9446726634	 0.0849127002	 0.109304
H	 0.0919720585	 1.7112225794	-1.3079243786	 0.11938
H	-0.5885503424	 2.0842558399	 0.282636473	 0.118531
H	 1.0958511524	-1.6910794757	-0.5774368031	 0.109976
H	 2.1729987445	-0.2359607302	-0.3182372731	 0.10481
H	-0.0172568353	-1.2489037194	 1.6574161588	 0.089826
H	 0.5883934349	 1.0306667779	 2.8245949073	 0.090528
H	 2.2933010325	-0.0637753677	 4.2614616065	 0.112019
H	 2.6494291237	-1.2726455798	 2.9446130736	 0.115317
H	 3.3113096635	 0.5813344493	 1.393439351	 0.114203
H	 2.9285300103	 1.8191208002	 2.6695232513	 0.111788
65.0906	160.1264	197.7011	246.4457	309.9941	373.6372	487.2468	535.9043	721.9366	764.4974	804.0939	838.0625	883.4984	921.5087	940.1986	1030.9853	1035.3026	1058.2619	1079.0296	1084.7748	1122.6102	1138.4971	1143.2406	1169.8284	1187.6569	1199.125	1209.9932	1237.6189	1336.9156	1390.3414	1413.7538	1449.8052	1467.6872	1493.2524	1498.7044	1505.4161	1511.5599	2994.4388	3068.5759	3090.9306	3092.835	3096.656	3123.6874	3132.6464	3139.1632	3172.2262	3211.9019	3227.0792
CN1CC1C1CC1	CN1C[C@H]1C1CC1	
InChI=1S/C6H11N/c1-7-4-6(7)5-2-3-5/h5-6H,2-4H2,1H3	InChI=1S/C6H11N/c1-7-4-6(7)5-2-3-5/h5-6H,2-4H2,1H3/t6-,7?/m0/s1
