16
gdb 1682	4.28424	1.96415	1.4566	3.3432	57.58	-0.2395	0.035	0.2744	845.3709	0.13492	-362.942862	-362.934257	-362.933313	-362.976204	29.777	
C	 0.1193995979	 1.5086082235	-0.7422860827	-0.240398
O	-0.2025296408	 0.1357164262	-0.7908187508	-0.258824
C	 0.9106533069	-0.7312566096	-0.9675067105	 0.043208
C	 1.7165762034	-0.9424728694	 0.3150009904	-0.398688
C	 0.4145316279	-2.0827075109	-1.5132849457	 0.373184
N	-0.8914873547	-2.1047874252	-1.8722521009	-0.514447
O	 1.174036018	-3.0272507324	-1.6231234656	-0.377232
H	 0.7258559819	 1.7631729145	 0.1374554542	 0.116935
H	 0.6637153283	 1.8268468532	-1.6445019485	 0.11104
H	-0.8230394487	 2.0586431085	-0.6855372228	 0.129628
H	 1.57174503	-0.3194521642	-1.7481599048	 0.096309
H	 2.2177902218	-0.0231777343	 0.6290573153	 0.111234
H	 1.057718443	-1.2756334805	 1.1225474354	 0.125241
H	 2.4692715481	-1.7122687976	 0.136262421	 0.152448
H	-1.4684993447	-1.30040677	-1.6965848282	 0.27114
H	-1.2876760684	-2.9658141017	-2.2089125057	 0.259222
48.7559	71.5852	183.9031	216.7947	237.6642	276.1814	293.25	392.6067	417.2135	482.5012	546.4894	628.7426	732.5334	815.283	880.1677	1047.0147	1083.5004	1100.0747	1116.9817	1154.0278	1183.1668	1224.1303	1320.7794	1356.3089	1382.0276	1394.0204	1477.928	1483.1379	1494.7748	1499.2055	1511.9391	1588.572	1799.6799	2971.2975	2986.1707	3041.2324	3050.1419	3115.3799	3119.6626	3147.0197	3604.5713	3746.8018
COC(C)C(N)=O	CO[C@@H](C)C(=O)N	
InChI=1S/C4H9NO2/c1-3(7-2)4(5)6/h3H,1-2H3,(H2,5,6)	InChI=1S/C4H9NO2/c1-3(7-2)4(5)6/h3H,1-2H3,(H2,5,6)/t3-/m0/s1
