10
gdb 196	9.58198	3.73874	2.69846	2.9659	44.3	-0.2049	0.0202	0.2251	451.8468	0.075243	-301.373496	-301.368495	-301.36755	-301.401649	18.	
N	 0.1019390283	 1.3792594853	 0.1861357863	-0.593716
C	-0.0518325876	 0.0107534698	 0.0473779884	 0.352856
C	-1.1058733474	-0.8458485657	-0.0263346487	-0.18461
N	-0.617598452	-2.1518690151	-0.0507354907	-0.244057
C	 0.6606812456	-2.0232161092	 0.0003334688	 0.062882
O	 1.092678363	-0.7251568608	 0.0664700047	-0.170914
H	 0.9127962902	 1.739420774	-0.3014955461	 0.260526
H	-0.7290636718	 1.8923386382	-0.073544906	 0.260794
H	-2.1599787359	-0.6261120959	-0.0626426722	 0.110524
H	 1.4263675677	-2.7813337506	-0.0075398545	 0.145717
183.9983	296.0971	393.1131	644.2882	669.5996	692.4156	743.3206	779.9644	784.3499	938.6842	981.977	1095.7849	1100.0329	1130.0473	1271.1059	1286.7348	1420.6455	1572.1111	1620.4163	1673.8744	3270.7628	3287.4372	3544.8152	3646.0654
NC1=CN=CO1	Nc1cnco1	
InChI=1S/C3H4N2O/c4-3-1-5-2-6-3/h1-2H,4H2	InChI=1S/C3H4N2O/c4-3-1-5-2-6-3/h1-2H,4H2
