13
gdb 1855	5.74301	2.32582	1.80698	4.7487	56.1	-0.2676	-0.0437	0.2239	686.7138	0.102419	-344.508729	-344.502645	-344.501701	-344.538606	22.441	
C	-0.0324425832	 1.548123036	-0.0275328137	-0.394968
C	 0.0334901084	 0.02290312	 0.0179584423	 0.072675
O	 0.7826142255	-0.4701254994	-1.099638908	-0.232986
C	 1.8353738221	-1.2417268374	-0.6670645349	 0.422616
O	 2.6058704468	-1.7644502264	-1.4205124274	-0.344855
C	 1.7854637689	-1.2641709821	 0.8165954901	-0.22222
C	 0.7444827793	-0.5395162526	 1.21868706	-0.078154
H	 0.9710068369	 1.9764606441	 0.0426027072	 0.13551
H	-0.4892246835	 1.8750764894	-0.9646902524	 0.142058
H	-0.6357128023	 1.9258819164	 0.8038026219	 0.123413
H	-0.9824646851	-0.3902967975	-0.0571691577	 0.113081
H	 2.5123097335	-1.8030149562	 1.4060674962	 0.134956
H	 0.4185812325	-0.3464127942	 2.2328713364	 0.128874
134.2418	230.5822	240.3985	342.5441	496.1616	514.1211	676.5459	716.8436	766.8365	838.2645	857.6929	888.9553	973.043	977.6359	1044.4586	1091.2937	1125.844	1127.9952	1167.5509	1325.0849	1345.6913	1362.6106	1405.4537	1485.8675	1495.7558	1663.8436	1873.0714	3011.1069	3045.9387	3121.8147	3133.3218	3217.7191	3258.2829
CC1OC(=O)C=C1	C[C@H]1OC(=O)C=C1	
InChI=1S/C5H6O2/c1-4-2-3-5(6)7-4/h2-4H,1H3	InChI=1S/C5H6O2/c1-4-2-3-5(6)7-4/h2-4H,1H3/t4-/m1/s1
