19
gdb 2012	5.18386	1.99081	1.91531	0.2264	71.65	-0.2866	0.0912	0.3778	784.7641	0.172823	-273.743311	-273.736471	-273.735527	-273.774027	26.71	
C	-0.034401648	 1.5314622393	 0.0442099995	-0.379195
C	 0.0284772553	 0.0026354358	-0.0494038427	-0.3095
C	 0.7345471742	-0.4950123018	-1.28704077	 0.373037
C	 2.2129223947	-0.2207143363	-1.7217053726	-0.246391
C	 1.6154037844	-1.129363669	-2.8309766661	-0.039987
C	 0.981558192	-1.9807768783	-1.6970486105	-0.260543
C	 0.3431528165	-0.2393772991	-2.7807488942	-0.246373
H	 0.9694809264	 1.9686064632	 0.0619737373	 0.117895
H	-0.5670216665	 1.9589485237	-0.811819013	 0.117858
H	-0.5533772154	 1.8503482741	 0.9532161808	 0.110942
H	 0.5377248754	-0.4008139241	 0.8360248318	 0.09572
H	-0.9889410431	-0.4104356477	-0.0312161769	 0.095725
H	 2.4609708938	 0.8054209141	-2.0086373971	 0.085214
H	 2.9951083817	-0.6592975378	-1.0942873624	 0.083337
H	 2.1242809177	-1.4963215879	-3.7229287729	 0.067042
H	 1.6691670189	-2.5533919709	-1.0668792401	 0.083336
H	 0.0962839185	-2.569014867	-1.9579544322	 0.083345
H	-0.590410274	-0.6951736489	-3.1250382036	 0.083338
H	 0.4460942575	 0.7852858587	-3.1499000451	 0.085202
78.773	183.4706	212.8983	324.0528	394.2582	543.035	543.6586	616.0699	750.7018	799.052	809.9623	878.0751	930.3735	937.8409	948.2847	960.0657	995.5767	1004.1694	1051.5783	1062.2915	1104.0334	1105.8696	1144.9484	1145.3623	1171.5257	1192.3039	1229.4312	1238.3965	1240.4761	1307.2056	1310.6095	1375.2675	1407.319	1480.0292	1496.7537	1497.9544	1499.3744	1506.7	1554.7785	3011.7505	3033.935	3036.4688	3036.5735	3043.1224	3045.4297	3098.0814	3102.583	3103.7561	3103.9693	3105.5173	3106.7783
CCC12CC(C1)C2	CC[C@@]12C[C@@H](C1)C2	
InChI=1S/C7H12/c1-2-7-3-6(4-7)5-7/h6H,2-5H2,1H3	InChI=1S/C7H12/c1-2-7-3-6(4-7)5-7/h6H,2-5H2,1H3/t6-,7+
