11
gdb 501	15.05755	1.57467	1.51807	2.1434	45.71	-0.2626	-0.0461	0.2165	741.954	0.082446	-322.42132	-322.414586	-322.413642	-322.453432	21.086	
N	-0.064613994	 1.238399394	-0.0226028936	-0.428581
C	-0.1167791593	-0.0171372978	 0.053925544	 0.128267
O	-0.8420901283	-0.7163460305	-0.8499404616	-0.174665
C	-0.9746467123	-2.1101995478	-0.6433900564	-0.170307
C	-2.2941539613	-2.4507313754	 0.0440418027	 0.129508
O	-2.5949110791	-3.5682802274	 0.3644819439	-0.219683
H	 0.5357883493	 1.6099850001	 0.7102325904	 0.235872
H	 0.3894830064	-0.6553706518	 0.7920333533	 0.092226
H	-0.9582160964	-2.5928601381	-1.626407749	 0.159092
H	-0.1450533642	-2.5254924703	-0.0560548266	 0.140605
H	-2.9564007807	-1.572691365	 0.2129745029	 0.107666
27.566	75.8791	108.5179	319.9261	353.0268	462.3266	675.9491	707.1371	820.1667	976.9035	1027.581	1042.0128	1111.4919	1153.7931	1235.8235	1320.3045	1347.7602	1399.7773	1413.9158	1461.2619	1750.9922	1843.4725	2898.3279	3015.6044	3028.3806	3086.47	3525.1789	27.5658	75.8792	108.5179	319.9261	353.0268	462.3266	675.949	707.1371	820.1667	976.9034	1027.5809	1042.0126	1111.4918	1153.793	1235.8234	1320.3044	1347.7601	1399.7771	1413.9157	1461.2618	1750.9921	1843.4724	2898.3279	3015.6043	3028.3806	3086.47	3525.1789
N=COCC=O	[NH][CH]OCC=O	
InChI=1S/C3H5NO2/c4-3-6-2-1-5/h1,3-4H,2H2	InChI=1S/C3H5NO2/c4-3-6-2-1-5/h1,3-4H,2H2
