16
gdb 4797	4.69443	1.48964	1.14699	1.8886	67.73	-0.1942	0.0568	0.251	1031.2042	0.131091	-379.963967	-379.955865	-379.954921	-379.996515	28.946	
C	 0.0390016216	 1.3748911238	 0.0464304152	-0.233373
O	 0.0163476424	-0.0514787635	-0.022251038	-0.271143
C	 0.6180175796	-0.5682232965	-1.1010810834	 0.483556
N	 1.209987127	 0.0670613906	-2.0769201661	-0.414496
C	 1.6620431527	-0.9330594875	-2.9338321868	 0.280252
C	 2.4011563046	-0.5990699056	-4.1869396136	-0.484386
C	 1.3248808117	-2.1612043504	-2.4432418881	-0.189655
N	 0.6465250271	-1.9173264391	-1.2516234468	-0.336391
H	 1.0679537613	 1.7453507148	 0.0721867486	 0.139392
H	-0.4677131796	 1.8126299541	-0.8185689605	 0.139485
H	-0.4836952578	 1.635599584	 0.9673808157	 0.12781
H	 3.3176298898	-0.0393117372	-3.9689798283	 0.128558
H	 2.6767163858	-1.505891244	-4.7324346647	 0.114533
H	 1.7939529136	 0.0276094847	-4.8497491321	 0.128569
H	 1.4920735822	-3.161133858	-2.80651653	 0.122337
H	 0.250675198	-2.5900049201	-0.6184409211	 0.264951
101.5911	133.4024	145.229	195.1658	223.0948	326.5976	345.9472	458.6596	511.9461	617.1843	652.3214	683.2146	737.573	752.4798	980.7697	1009.4334	1033.4166	1065.5817	1079.6218	1102.6153	1184.1179	1219.3794	1251.985	1295.2234	1369.0615	1417.6158	1462.8124	1474.6456	1476.6067	1487.3521	1500.9526	1515.8424	1621.0292	1624.1962	3029.871	3041.8139	3081.5215	3112.4882	3113.1475	3150.3985	3276.3561	3679.998
COC1=NC(C)=CN1	COc1nc(C)c[nH]1	
InChI=1S/C5H8N2O/c1-4-3-6-5(7-4)8-2/h3H,1-2H3,(H,6,7)	InChI=1S/C5H8N2O/c1-4-3-6-5(7-4)8-2/h3H,1-2H3,(H,6,7)
