15
gdb 960	3.54573	3.27791	1.74006	0.7256	63.61	-0.2067	0.0281	0.2348	722.7251	0.125018	-308.561061	-308.553987	-308.553043	-308.592172	25.395	
C	 0.1140028106	 1.4910833048	 0.0144161872	-0.491618
C	-0.0589231192	 0.0146225795	-0.0322152998	 0.27471
C	-1.1412083847	-0.8148877624	 0.024379166	 0.168081
C	-2.5849810763	-0.4400052006	 0.1610247197	-0.506881
C	-0.6146012585	-2.152046828	-0.0752588021	-0.260263
C	 0.7300840706	-2.0294013575	-0.1831245707	-0.018347
O	 1.0895661293	-0.7188006734	-0.1590841325	-0.181131
H	 0.7400386575	 1.7957256686	 0.8611310581	 0.136367
H	 0.592196498	 1.8685984759	-0.8968876816	 0.136364
H	-0.8550198181	 1.9840672396	 0.1163311029	 0.132435
H	-3.1756511988	-0.8004848147	-0.6892404016	 0.128317
H	-3.028599735	-0.8733241746	 1.0650181825	 0.128308
H	-2.7178071364	 0.6436717898	 0.2171231533	 0.121833
H	-1.1786762323	-3.0724120183	-0.0657780588	 0.103668
H	 1.5383315734	-2.7354076486	-0.2804247227	 0.12816
90.3482	121.3898	220.7605	268.7631	279.4123	392.4494	617.6762	624.6975	653.5578	707.3356	742.8812	819.0266	910.0733	959.0713	985.7592	1058.2224	1067.5522	1071.5525	1164.8392	1184.1845	1243.9068	1279.5167	1404.1841	1425.6993	1438.3427	1472.6348	1483.4847	1490.1653	1497.8189	1554.0198	1672.7853	3026.6257	3029.1086	3074.4398	3076.5808	3110.6565	3129.8768	3245.9195	3281.3216
CC1=C(C)C=CO1	Cc1c(C)cco1	
InChI=1S/C6H8O/c1-5-3-4-7-6(5)2/h3-4H,1-2H3	InChI=1S/C6H8O/c1-5-3-4-7-6(5)2/h3-4H,1-2H3
