10
gdb 3886	7.44018	2.35769	1.79311	3.5288	46.16	-0.2377	0.0204	0.2581	633.2476	0.067612	-392.620909	-392.61517	-392.614225	-392.650293	21.115	
N	 0.1020649854	 1.3233226091	 0.1510670972	-0.586576
C	-0.0424026966	-0.023499338	 0.0338954152	 0.500961
N	-1.1433510899	-0.6864006653	-0.0439341125	-0.223639
O	-0.6952897786	-2.0544188597	-0.0429545247	-0.244388
C	 0.6597086546	-2.0755824289	 0.0018969968	 0.519401
N	 1.4591233763	-3.039591801	-0.0019985086	-0.577522
O	 1.0881574702	-0.7634390199	 0.0594940085	-0.200443
H	 0.9552973141	 1.6993855095	-0.2351496229	 0.282001
H	-0.72853776	 1.8533604776	-0.0669191958	 0.284445
H	 0.9597957045	-3.9239716735	-0.0503023131	 0.245761
168.0219	268.5148	328.8864	371.1843	516.9293	558.9	676.4281	692.0625	742.0068	777.3935	782.5528	908.8999	943.5689	1001.7809	1060.5698	1143.2149	1264.8505	1476.2492	1623.6057	1729.4935	1821.3785	3548.2378	3581.8564	3691.5451
NC1=NOC(=N)O1	NC1=NO[C@H]([NH])O1	
InChI=1S/C2H3N3O2/c3-1-5-7-2(4)6-1/h4H,(H2,3,5)	InChI=1S/C2H4N3O2/c3-1-5-7-2(4)6-1/h2,4H,(H2,3,5)/t2-/m1/s1
