15
gdb 2447	4.21049	3.41049	2.7305	1.2476	55.89	-0.2339	0.0936	0.3276	570.7528	0.127717	-345.629842	-345.624505	-345.62356	-345.658674	21.282	
C	-0.0334426118	 1.5557339513	 0.1483870005	-0.24269
C	 1.4908692011	 1.385265281	-0.0180774274	 0.073309
C	 2.1276842043	 0.9901761205	 1.3100087829	-0.067754
O	 1.2126891921	 0.220354525	 2.0866104252	-0.268446
C	 0.3698106672	-0.6364222744	 1.3195123402	-0.067753
C	 0.0174930989	 0.0219212353	-0.0101112031	 0.073309
O	 1.2643450063	 0.1479035569	-0.7588471605	-0.301585
H	-0.411517681	 1.9697910485	 1.0842293338	 0.113233
H	-0.4878336592	 2.0417541935	-0.7149346615	 0.11133
H	 2.0779274039	 2.1156286159	-0.5811688766	 0.080476
H	 3.0478490979	 0.4229344642	 1.1021495926	 0.101989
H	 2.3820631357	 1.8661459256	 1.917305087	 0.106058
H	 0.8628696787	-1.5988740084	 1.1139610244	 0.101989
H	-0.519675899	-0.8188958516	 1.9329920654	 0.106057
H	-0.7594084253	-0.5098141335	-0.565828103	 0.080476
226.0132	320.318	387.0062	436.1731	574.1989	639.2844	840.6481	841.4084	860.7067	878.0679	906.3108	939.1358	974.8776	1008.8194	1049.1353	1079.2715	1085.3007	1103.3883	1159.2629	1206.2131	1250.2835	1253.723	1266.1143	1326.2668	1337.7581	1355.1931	1367.2649	1411.135	1482.5813	1482.8913	1494.5629	2989.1628	2995.6798	3065.6534	3067.0324	3077.7729	3080.2862	3090.6438	3151.8536
C1C2COCC1O2	C1[C@H]2COC[C@@H]1O2	
InChI=1S/C5H8O2/c1-4-2-6-3-5(1)7-4/h4-5H,1-3H2	InChI=1S/C5H8O2/c1-4-2-6-3-5(1)7-4/h4-5H,1-3H2/t4-,5+
