13
gdb 4748	7.21154	1.26372	1.07529	2.4881	67.1	-0.2115	-0.0457	0.1658	1002.6273	0.096469	-398.649172	-398.642159	-398.641214	-398.680339	25.897	
O	 0.0892250049	 1.3870446162	-0.1383481095	-0.443013
C	 0.0663915457	 0.0302591742	-0.0298625243	 0.33496
C	-0.0015735049	-0.8170986307	-1.1304218087	-0.137718
N	-0.0062638593	-2.0940621979	-0.6612254279	-0.284617
C	 0.056739426	-2.0977227611	 0.7070739786	 0.255213
C	 0.0645437896	-3.346208779	 1.4313681309	 0.073909
O	 0.0174047922	-4.4388667388	 0.8931383177	-0.322249
C	 0.1033136664	-0.768949277	 1.129356011	-0.378381
H	 0.1373191565	 1.7676357553	 0.7433517523	 0.301342
H	-0.0451289115	-0.5841889984	-2.1813492286	 0.138056
H	-0.0484037103	-2.9464456126	-1.1962063412	 0.280846
H	 0.1174435003	-3.2429470678	 2.5352410941	 0.074206
H	 0.1573412645	-0.4342172325	 2.1550566255	 0.107445
120.4315	176.0227	230.9388	293.1397	343.05	379.598	498.7659	582.5189	638.4787	667.4828	691.7709	757.0369	786.8697	797.5965	987.4878	1011.4324	1023.326	1122.2644	1166.2522	1190.3293	1309.8289	1374.9339	1389.9073	1464.7291	1482.1437	1532.3218	1636.8713	1754.4001	2913.4205	3239.031	3276.467	3662.0524	3844.1878
OC1=CNC(C=O)=C1	Oc1c[nH]c(C=O)c1	
InChI=1S/C5H5NO2/c7-3-4-1-5(8)2-6-4/h1-3,6,8H	InChI=1S/C5H5NO2/c7-3-4-1-5(8)2-6-4/h1-3,6,8H
