12
gdb 3428	5.06186	2.96878	2.11094	4.0786	49.96	-0.2449	0.0066	0.2514	592.5765	0.091935	-360.527434	-360.521917	-360.520973	-360.556704	20.606	
O	 0.0143599627	-0.0325352033	-0.0615075243	-0.375932
C	 0.0101767148	 1.1763600461	-0.014888651	 0.435911
N	-1.088609005	 1.9914888623	 0.0933410471	-0.325722
C	-0.8303719228	 3.4215255484	 0.0387511411	-0.18987
C	 0.6896613788	 3.4839599293	-0.0182993196	 0.047114
O	 1.3122322634	 2.9068786227	 1.1244906374	-0.241707
C	 1.2063428238	 2.1110916516	-0.0718390265	-0.092315
H	-1.9969001561	 1.5996623681	 0.2823223876	 0.258026
H	-1.2693813869	 3.8816439309	-0.8562758711	 0.118034
H	-1.2167114751	 3.9448012732	 0.9216344916	 0.129671
H	 1.1902847551	 4.3373312614	-0.4644064069	 0.113703
H	 2.1340317473	 1.7952028392	-0.5348112555	 0.123086
145.7643	270.9416	389.7897	451.7981	487.6937	624.5074	723.8404	789.7255	839.7023	873.1978	886.8963	936.6946	997.0558	1063.2523	1078.2289	1113.4887	1221.857	1240.7229	1261.8315	1302.9109	1347.7017	1416.8007	1448.379	1513.0775	1839.1278	3016.6556	3057.1387	3170.1933	3195.6042	3650.0727
O=C1NCC2OC12	O=C1NC[C@H]2O[C@@H]12	
InChI=1S/C4H5NO2/c6-4-3-2(7-3)1-5-4/h2-3H,1H2,(H,5,6)	InChI=1S/C4H5NO2/c6-4-3-2(7-3)1-5-4/h2-3H,1H2,(H,5,6)/t2-,3-/m1/s1
