15
gdb 3448	4.5619	2.92167	2.14892	2.0839	56.59	-0.2538	0.0898	0.3436	642.1606	0.125611	-345.639692	-345.633517	-345.632573	-345.66953	23.305	
C	 0.1511429195	 1.5507280701	-0.0149039323	-0.40025
C	 0.042028085	 0.034578577	 0.0355116065	 0.121384
O	 0.6939988033	-0.5050655332	-1.1193814715	-0.270498
C	 1.294903309	-1.7560926191	-0.812129478	-0.105355
C	 1.5211346768	-1.7415111244	 0.6836689228	 0.028449
O	 2.1615797687	-0.5435394555	 1.1387227693	-0.248697
C	 0.7336366606	-0.629167051	 1.2134822907	 0.011596
H	 1.200525684	 1.847278923	 0.0543702513	 0.139357
H	-0.2597134398	 1.9274173514	-0.9551427045	 0.127822
H	-0.4043629639	 2.0052809802	 0.8115347288	 0.111606
H	-1.0191062939	-0.2708389056	 0.0508850143	 0.068705
H	 0.6382271591	-2.6027797153	-1.0733784106	 0.093536
H	 2.2178859462	-1.838495033	-1.3956428301	 0.119279
H	 1.7423735673	-2.6515123135	 1.2343265781	 0.102266
H	 0.2958481781	-0.6095680111	 2.2078297451	 0.1008
140.5871	227.7359	247.4213	342.6908	400.4252	531.9773	666.6939	768.0679	829.4507	841.3537	875.4327	902.5203	945.4991	997.9559	1037.1661	1047.5919	1099.1393	1121.3152	1128.2659	1152.0774	1228.5541	1259.0352	1309.3025	1334.3629	1370.1424	1381.6878	1406.8898	1445.8597	1486.024	1499.6883	1506.8202	2949.1383	2970.9636	3046.0097	3070.9725	3118.2055	3134.7351	3150.9987	3164.0454
CC1OCC2OC12	C[C@H]1OC[C@H]2O[C@@H]12	
InChI=1S/C5H8O2/c1-3-5-4(7-5)2-6-3/h3-5H,2H2,1H3	InChI=1S/C5H8O2/c1-3-5-4(7-5)2-6-3/h3-5H,2H2,1H3/t3-,4-,5+/m1/s1
