17
gdb 3521	5.45396	2.53958	2.24172	0.047	68.99	-0.2646	0.1061	0.3706	665.6695	0.150069	-272.510742	-272.504974	-272.50403	-272.539864	23.803	
C	-0.0150417121	 1.5113383142	 0.0106499683	-0.375116
C	 1.3151486396	 0.7525054668	-0.00681249	-0.375117
C	 0.0182015766	 0.0243198406	 0.0020061059	 0.485687
C	-0.5758500941	-1.0387450535	 0.946547339	-0.120977
C	-1.8267649372	-1.0385469397	 0.0144020802	-0.212908
C	-0.5946191376	-1.0281950631	-0.9423593014	-0.120978
C	 0.0422569453	-2.1047690309	-0.0101246865	-0.212909
H	-0.2875587661	 2.0262136414	 0.9270574859	 0.110023
H	-0.3056612419	 2.0364112091	-0.8943376213	 0.110023
H	 1.8969889567	 0.7798550366	-0.9232615688	 0.110023
H	 1.915103775	 0.7696748339	 0.8981312266	 0.110023
H	-0.560916824	-1.0376701269	 2.0380205372	 0.068171
H	-2.4305146851	-1.9504834733	 0.0153077437	 0.085186
H	-2.4466039646	-0.1390676671	 0.0255848457	 0.092755
H	-0.6013784716	-1.0149278089	-2.0338335821	 0.068171
H	 1.1319904255	-2.1805489373	-0.0213758821	 0.092755
H	-0.4354677446	-3.0885990618	-0.0108730403	 0.085187
221.6081	257.5331	281.3115	475.2131	603.7105	613.295	753.8147	783.2106	789.214	866.072	896.0921	903.6664	909.9675	953.0752	965.7185	1017.0223	1031.3694	1042.417	1063.1491	1079.4585	1082.5862	1098.9134	1117.9855	1170.1033	1179.0837	1192.3179	1196.0814	1233.9772	1247.2216	1260.1832	1409.6005	1461.7608	1492.0448	1510.3906	1538.6545	3050.9007	3052.3873	3093.9732	3099.9232	3116.1123	3120.213	3120.3332	3122.1043	3192.2546	3206.5299
C1CC11C2CC1C2	C1CC21[C@H]1C[C@@H]2C1	
InChI=1S/C7H10/c1-2-7(1)5-3-6(7)4-5/h5-6H,1-4H2	InChI=1S/C7H10/c1-2-7(1)5-3-6(7)4-5/h5-6H,1-4H2/t5-,6+
