17
gdb 2708	10.34757	0.88058	0.85403	4.2327	62.71	-0.2765	0.01	0.2865	1331.5632	0.14672	-346.884834	-346.876296	-346.875352	-346.918999	28.467	
C	-0.1605071887	 1.4727438949	 0.2229829424	-0.379505
C	-0.0240646671	-0.026638701	-0.0551275856	-0.170696
C	-1.3787579881	-0.7342843898	-0.1721157614	-0.170024
C	-1.2336884466	-2.22537077	-0.4505487297	-0.089371
O	-2.5175573381	-2.8353316376	-0.6468031287	-0.174099
C	-3.0096465149	-3.6062262247	 0.3383411803	 0.17102
O	-4.0851148733	-4.1223336474	 0.2840046306	-0.275424
H	 0.8196670118	 1.9525995754	 0.3000329329	 0.116985
H	-0.7161890275	 1.973835892	-0.5768777308	 0.120264
H	-0.6958650549	 1.6540085484	 1.1612521479	 0.118977
H	 0.545712166	-0.1773590758	-0.981450663	 0.102174
H	 0.5659390246	-0.4951213804	 0.7438204872	 0.099537
H	-1.9544253791	-0.5981526527	 0.7525222482	 0.104994
H	-1.9718181126	-0.284375172	-0.9771689663	 0.11768
H	-0.6689933803	-2.4006330582	-1.3714860427	 0.125163
H	-0.7033626836	-2.7292656236	 0.368932187	 0.109325
H	-2.3079032277	-3.7121494075	 1.1903138716	 0.072999
37.7871	82.0877	109.7701	139.7745	205.7726	246.7949	340.2674	382.7794	430.433	675.5574	741.4918	802.666	910.3474	946.8522	1013.477	1043.2729	1051.2003	1066.225	1131.3025	1143.8748	1218.948	1277.8797	1294.7295	1327.6518	1335.0719	1387.3114	1409.0558	1415.9908	1434.8794	1486.8123	1492.8324	1500.2296	1505.0991	1515.9717	1866.5391	2932.8125	3012.7641	3016.7296	3027.618	3033.674	3041.749	3067.4169	3090.67	3101.3866	3107.0825
CCCCOC=O	CCCCOC=O	
InChI=1S/C5H10O2/c1-2-3-4-7-5-6/h5H,2-4H2,1H3	InChI=1S/C5H10O2/c1-2-3-4-7-5-6/h5H,2-4H2,1H3
