15
gdb 3348	5.57608	2.7894	2.06748	1.4778	63.53	-0.2261	0.0098	0.2359	642.373	0.12671	-308.486071	-308.48036	-308.479416	-308.515392	22.194	
C	 0.0037129452	 1.5353688319	 0.0481393719	-0.253058
C	 1.5765067068	 1.4039432	 0.0453504752	-0.313444
C	 1.3240653382	-0.0285553466	 0.4637611749	 0.234982
C	 1.4235736103	-0.8640924022	 1.4896378649	-0.235779
C	 0.0934174589	-1.5959229658	 1.6107048901	-0.105632
O	-0.8327981708	-0.8574698745	 0.7877380087	-0.279945
C	-0.0704940907	-0.0339147716	-0.0697829107	 0.106069
H	-0.3659842184	 1.8674623417	 1.0197672944	 0.119222
H	-0.4493124376	 2.1213569332	-0.7548717473	 0.102098
H	 1.9829931791	 1.5046848665	-0.965552017	 0.116593
H	 2.150840745	 2.0347407205	 0.7256554188	 0.116473
H	 2.2091009596	-0.9432194378	 2.2304274754	 0.101984
H	 0.130851697	-2.6462438762	 1.2790333901	 0.102768
H	-0.2739796655	-1.5923316418	 2.6454910753	 0.110461
H	-0.199400667	-0.3392477774	-1.1183876146	 0.077209
149.4213	248.4637	330.9465	385.0551	650.7836	684.0875	731.0419	769.765	819.0628	829.1896	905.4796	921.4768	948.9477	974.8517	1020.619	1026.8403	1083.9334	1119.1663	1128.3278	1168.9852	1195.4433	1212.8688	1242.7083	1246.5542	1299.8488	1343.5018	1383.6988	1468.8374	1485.3877	1517.9066	1730.7844	2970.5851	2994.8642	3027.9763	3058.5605	3068.6525	3118.9871	3141.9171	3213.7617
C1CC2=CCOC12	C1C[C]2[CH]CO[C@@H]12	
InChI=1S/C6H8O/c1-2-6-5(1)3-4-7-6/h3,6H,1-2,4H2	InChI=1S/C6H8O/c1-2-6-5(1)3-4-7-6/h3,6H,1-2,4H2/t6-/m0/s1
