10
gdb 431	5.55098	4.00493	2.53231	3.0125	39.11	-0.2674	-0.0058	0.2616	481.5842	0.072889	-342.315546	-342.309972	-342.309028	-342.344721	18.879	
O	 0.0848463736	 1.4165038163	 0.1788288254	-0.418746
C	 0.0076269495	 0.0229387891	 0.0619835616	-0.047499
C	-1.416068682	-0.5133398473	-0.1458773132	-0.086571
O	-1.0172927447	-1.1058068438	-1.4277899499	-0.234396
C	 0.243932931	-0.5756288792	-1.3422449429	 0.419797
O	 1.1165257493	-0.6109512082	-2.1476303444	-0.319023
H	 0.996051319	 1.681279877	 0.0097899646	 0.303995
H	 0.5743781626	-0.5031700057	 0.8424342708	 0.109265
H	-1.7674846955	-1.2806401212	 0.5448538965	 0.131067
H	-2.1626639229	 0.268686953	-0.2922062485	 0.142111
144.7899	169.5884	280.2254	390.574	512.8168	707.5025	748.4687	863.8499	917.8839	960.3407	1051.0374	1121.9628	1151.1281	1177.6177	1212.9402	1303.0231	1342.3636	1425.5024	1507.1357	1940.7735	3015.4258	3085.5188	3153.8739	3810.42
OC1COC1=O	O[C@H]1COC1=O	
InChI=1S/C3H4O3/c4-2-1-6-3(2)5/h2,4H,1H2	InChI=1S/C3H4O3/c4-2-1-6-3(2)5/h2,4H,1H2/t2-/m0/s1
