14
gdb 4376	3.77747	1.82793	1.23184	2.2764	67.38	-0.2102	0.0075	0.2176	909.1037	0.108801	-382.61021	-382.603564	-382.60262	-382.640636	26.49	
O	 0.1067887017	 1.3505183105	-0.0736620985	-0.443359
C	 0.0781127347	-0.0118624648	-0.0291882344	 0.430798
C	-0.0224409687	-0.6947292788	-1.2410973329	-0.217087
C	-0.053995686	-2.0851278445	-1.229338467	-0.071081
C	 0.0122088111	-2.8054021096	-0.0414146482	-0.217086
C	 0.1125541698	-2.1110193922	 1.163950842	 0.430797
O	 0.1755011947	-2.8451395926	 2.311116036	-0.443359
C	 0.1458079085	-0.7153804275	 1.1747688365	-0.427732
H	 0.1769261701	 1.6960056232	 0.8219308148	 0.295532
H	-0.0736368626	-0.1284942271	-2.1627852987	 0.100325
H	-0.1321486048	-2.6209124701	-2.1697183905	 0.098337
H	-0.0119024036	-3.8879599228	-0.0259485942	 0.100325
H	 0.2426960386	-2.2507494263	 3.0651403632	 0.295532
H	 0.2241949264	-0.1779066373	 2.1181119918	 0.068058
228.795	236.4342	333.3264	359.0954	360.4333	462.2155	482.7473	525.4651	541.3182	634.8152	697.8884	758.3299	779.2043	819.4903	866.8734	957.7718	982.8944	1008.5548	1091.2993	1170.0247	1186.5658	1220.299	1221.8505	1346.4254	1354.0813	1381.8965	1504.8262	1548.408	1646.9896	1659.9747	3135.053	3180.3715	3208.207	3213.2851	3826.0742	3826.8821
OC1=CC=CC(O)=C1	Oc1cccc(O)c1	
InChI=1S/C6H6O2/c7-5-2-1-3-6(8)4-5/h1-4,7-8H	InChI=1S/C6H6O2/c7-5-2-1-3-6(8)4-5/h1-4,7-8H
