19
gdb 3467	4.74845	2.37264	2.31129	0.1021	70.47	-0.2802	0.0921	0.3723	707.7274	0.174535	-273.779498	-273.773264	-273.772319	-273.80906	25.517	
C	-0.1573391974	 1.5364866111	 0.0024709248	-0.434845
C	 0.0137284754	 0.0225547432	 0.0179242414	 0.067554
C	 1.1276671136	-0.5981560696	-0.8894753972	-0.011882
C	 2.1280712971	-0.2760012867	 0.2581738566	-0.228991
C	 0.8952170432	-0.6036119265	 1.1494847569	-0.011893
C	 0.7118659228	-2.1105609909	 0.8815948368	-0.21209
C	 0.889629126	-2.1063881132	-0.6776943095	-0.212092
H	 0.7861568758	 2.0784556796	 0.111930395	 0.116049
H	-0.6159066804	 1.8630548766	-0.9377438777	 0.112962
H	-0.816652765	 1.8582552545	 0.816536171	 0.112962
H	-0.9730379297	-0.4444838951	-0.0958259817	 0.053457
H	 1.291046571	-0.2542123177	-1.9125269191	 0.05099
H	 3.0121430769	-0.9141745569	 0.3572576151	 0.083102
H	 2.4299517064	 0.7705378093	 0.2953840573	 0.095881
H	 0.8239266344	-0.2651783026	 2.1848609108	 0.050992
H	 1.465818508	-2.7192273545	 1.3894656518	 0.091849
H	-0.2735866271	-2.471230521	 1.1910444107	 0.092073
H	-0.0006711308	-2.464821292	-1.2029081501	 0.092073
H	 1.7389121698	-2.7128182778	-1.0060428529	 0.091849
193.7727	263.19	276.5144	316.1094	448.611	515.308	647.4609	770.6882	819.2969	837.7172	843.4614	861.5447	903.5126	937.5998	959.5748	986.3363	995.7969	1017.4782	1070.3078	1076.0508	1085.7406	1107.6378	1145.63	1171.1741	1215.4688	1229.7508	1248.5811	1259.1149	1271.0377	1288.7288	1313.3813	1323.0321	1396.8706	1413.1126	1490.4296	1493.2737	1497.9498	1507.0208	1520.9306	3013.875	3030.0953	3044.8605	3051.2268	3055.1286	3081.3071	3086.0976	3094.366	3098.3471	3100.2854	3105.914	3131.4253
CC1C2CC1CC2	C[C@H]1[C@H]2C[C@@H]1CC2	
InChI=1S/C7H12/c1-5-6-2-3-7(5)4-6/h5-7H,2-4H2,1H3	InChI=1S/C7H12/c1-5-6-2-3-7(5)4-6/h5-7H,2-4H2,1H3/t5-,6+,7-
