13
gdb 4000	3.32752	1.32031	1.0106	2.3826	66.14	-0.2489	-0.0553	0.1935	1090.1851	0.091529	-398.527244	-398.518642	-398.517698	-398.561461	29.522	
O	-0.2849591644	 1.7190324354	 0.0525888862	-0.376771
N	 0.1014649249	 0.4895501827	 0.5551454214	-0.151033
C	-0.8014553823	-0.4157525006	 0.401989349	 0.148863
C	-0.4623298669	-1.8026580227	 0.8925259662	-0.358298
C	-0.2304704922	-2.7799545057	-0.2549393413	 0.161237
O	-0.688014509	-3.8895096436	-0.301212177	-0.229243
C	-2.0665294582	-0.2061399939	-0.2156426821	 0.359192
C	-3.1490149619	-0.0902603713	-0.7293440318	-0.459412
H	 0.475902589	 2.276113537	 0.2536748463	 0.314822
H	 0.4736373208	-1.7343609504	 1.4601833868	 0.149119
H	-1.2469322546	-2.2060275246	 1.5378606398	 0.137591
H	 0.4304453105	-2.3856524876	-1.0592731814	 0.089409
H	-4.1007771458	 0.0264948354	-1.1871188222	 0.214525
44.8549	61.5224	136.5304	172.2576	275.9011	292.5094	362.1867	433.6382	460.724	475.1195	637.1831	653.3114	664.0323	706.54	752.2005	840.1797	1005.1356	1041.3289	1066.1903	1189.1355	1265.7297	1293.3837	1401.9199	1418.2936	1443.5276	1672.8732	1839.7673	2221.9516	2884.0273	3045.169	3114.935	3498.0384	3806.3061
ON=C(CC=O)C#C	ON=C(CC=O)C#C	
InChI=1S/C5H5NO2/c1-2-5(6-8)3-4-7/h1,4,8H,3H2	InChI=1S/C5H5NO2/c1-2-5(6-8)3-4-7/h1,4,8H,3H2
