21
gdb 1095	4.25341	1.42238	1.38683	1.2727	70.88	-0.2594	0.0658	0.3252	1028.318	0.192	-312.136049	-312.126599	-312.125655	-312.169395	34.823	
C	-0.031786238	 1.611296056	 0.1303095489	-0.382583
C	 0.0187155343	 0.0873431341	-0.0123801847	-0.169945
C	-1.3750615193	-0.5447704155	-0.0950314754	-0.183332
C	-1.4088295506	-2.0882236492	-0.0322322944	 0.345093
C	-2.8644199129	-2.5772604489	-0.0524271124	-0.416034
C	-0.6174141665	-2.7336761613	-1.1732285601	-0.390335
O	-0.7677977542	-2.5460118371	 1.167753087	-0.456784
H	 0.9740026936	 2.0401415165	 0.181629055	 0.110738
H	-0.5475862867	 2.075314498	-0.7182081557	 0.110991
H	-0.5659892682	 1.9075952111	 1.0402944783	 0.109796
H	 0.5981198925	-0.1706104537	-0.9065933043	 0.095907
H	 0.5523124299	-0.3526968921	 0.8370613638	 0.107617
H	-1.9865881	-0.1641526448	 0.7375118408	 0.075262
H	-1.8827878251	-0.2139937046	-1.0110175095	 0.089589
H	-3.3665293403	-2.3022992185	-0.985807097	 0.112886
H	-2.8994240432	-3.6653588547	 0.0533466304	 0.118977
H	-3.4354296726	-2.1345512031	 0.7728592688	 0.099559
H	 0.4414129903	-2.4729039023	-1.1096426519	 0.124457
H	-0.6981350991	-3.8228479775	-1.1155476445	 0.117236
H	-1.0001439804	-2.4078704035	-2.1450669478	 0.108217
H	-1.2760706236	-2.2127613089	 1.9153509646	 0.272688
78.9753	106.3915	176.5832	214.6671	247.0542	252.6151	305.9123	317.2393	346.512	349.1569	412.5908	460.9979	538.0005	748.0776	766.3164	860.3714	887.7585	928.9305	938.2874	961.7367	1005.8232	1049.8183	1074.8392	1102.1699	1155.1269	1212.1365	1236.1927	1265.4829	1315.0526	1326.7877	1375.1089	1392.9413	1402.3793	1411.866	1421.1668	1470.4298	1483.2726	1489.3047	1494.9119	1497.5459	1500.3561	1510.1524	1513.0175	2989.9704	3024.4417	3026.2055	3033.2938	3036.7067	3046.8975	3070.8538	3090.5543	3096.8357	3099.4431	3111.3168	3118.3828	3129.6317	3799.8448
CCCC(C)(C)O	CCCC(C)(C)O	
InChI=1S/C6H14O/c1-4-5-6(2,3)7/h7H,4-5H2,1-3H3	InChI=1S/C6H14O/c1-4-5-6(2,3)7/h7H,4-5H2,1-3H3
