13
gdb 98	10.09703	4.26865	3.40487	1.4604	45.55	-0.256	0.0801	0.3361	413.9118	0.115063	-232.333258	-232.328097	-232.327153	-232.361103	19.023	
O	 0.546228468	 1.0327042414	-0.5839808267	-0.430534
C	-0.0011226887	-0.1103662125	 0.0189823754	 0.182717
C	 0.1394595006	-0.3431042945	 1.5477711674	-0.248279
C	-1.26863784	-0.9987651678	 1.5163265409	-0.20999
C	-1.5384465116	-0.264182361	 0.1742350958	-0.248278
H	 0.2033237934	 1.8043387394	-0.1207121881	 0.274661
H	 0.4129664713	-0.9585795469	-0.5356040203	 0.092024
H	 0.9889073771	-0.927196259	 1.909218669	 0.099527
H	 0.1178654883	 0.6132303359	 2.0835605298	 0.090805
H	-1.2082881264	-2.0819106406	 1.3803669877	 0.106644
H	-1.9414361378	-0.7911974551	 2.350141155	 0.100371
H	-2.0049568173	 0.7130793305	 0.3458149292	 0.090805
H	-2.0916031066	-0.78230202	-0.612491715	 0.099527
170.8155	298.3104	397.2498	445.9367	608.9125	751.8179	782.2571	902.2848	917.0327	935.3904	980.3186	1036.6582	1086.9331	1145.8863	1187.0017	1217.2932	1243.1068	1253.7785	1267.3589	1293.2958	1336.2917	1434.671	1471.9445	1487.151	1509.1541	3036.6064	3041.0574	3062.9291	3066.4339	3104.7325	3105.2762	3124.083	3804.7059
OC1CCC1	OC1CCC1	
InChI=1S/C4H8O/c5-4-2-1-3-4/h4-5H,1-3H2	InChI=1S/C4H8O/c5-4-2-1-3-4/h4-5H,1-3H2
