13
gdb 2251	3.99683	3.10183	2.08404	4.1997	53.67	-0.2735	0.0032	0.2767	633.8552	0.101287	-344.454717	-344.448462	-344.447517	-344.484701	22.984	
C	-0.0254604363	 1.5854906785	 0.0499919652	-0.492842
C	 0.0490309803	 0.0884362798	 0.021593507	 0.103334
C	-0.8718769113	-0.855573591	 0.8204491926	-0.330413
C	 0.6014871067	-0.9629996677	 0.9543527953	 0.064865
O	 1.1158305446	-1.7476164205	-0.1582258715	-0.266355
C	 0.7026483305	-0.7586328178	-1.0467133671	 0.435354
O	 0.9174370721	-0.6994236777	-2.2127890897	-0.324237
H	 0.9409315231	 2.0358621421	-0.1959999792	 0.139286
H	-0.7599641854	 1.9504269396	-0.6750738072	 0.144035
H	-0.3269174904	 1.9422520775	 1.0392666418	 0.126661
H	-1.400292301	-0.3586103092	 1.6295081434	 0.129335
H	-1.4208675475	-1.6518001597	 0.3276771154	 0.13912
H	 1.2177958146	-0.895092134	 1.839355774	 0.131857
150.8162	179.2281	251.5438	294.196	462.7984	495.5318	647.4405	707.8173	766.1775	837.9847	877.0943	895.263	933.7864	986.6484	1027.0745	1063.288	1079.0055	1109.6293	1115.2717	1256.1588	1276.3536	1394.5313	1424.4114	1482.6036	1488.5707	1497.2638	1941.0386	3039.0096	3105.344	3112.4833	3120.8186	3212.225	3228.5504
CC12CC1OC2=O	C[C@]12C[C@H]1OC2=O	
InChI=1S/C5H6O2/c1-5-2-3(5)7-4(5)6/h3H,2H2,1H3	InChI=1S/C5H6O2/c1-5-2-3(5)7-4(5)6/h3H,2H2,1H3/t3-,5+/m1/s1
