15
gdb 100	7.14221	4.37083	3.30265	0.1023	52.92	-0.2632	0.094	0.3573	465.3301	0.137341	-196.406419	-196.40034	-196.399396	-196.435152	22.005	
C	-0.0518984955	 1.5521743484	-0.103184376	-0.402017
C	 0.0122664775	 0.0469067539	 0.0374752004	 0.021774
C	 1.3011569171	-0.7066155329	-0.1972572405	-0.290689
C	 0.7043193884	-0.6489323916	 1.1900356187	 0.021779
C	 1.3975032424	 0.0948127989	 2.3107801094	-0.402018
H	 0.8740420881	 2.0354317078	 0.2216222842	 0.114219
H	-0.2164135675	 1.8369527829	-1.1485295788	 0.115359
H	-0.8715764599	 1.9767368438	 0.4879704596	 0.113684
H	-0.885082055	-0.4559694079	-0.3158078641	 0.078126
H	 1.2766365763	-1.6414902176	-0.7469796667	 0.104702
H	 2.194240669	-0.1140412081	-0.3756935917	 0.103695
H	 0.2167246071	-1.5637793412	 1.5190239983	 0.078125
H	 1.9131735597	 0.9905117518	 1.9527174745	 0.114218
H	 0.6873800878	 0.4090146831	 3.0844697172	 0.113685
H	 2.1493463345	-0.5415180713	 2.7911154254	 0.115358
172.6728	179.0664	254.9541	301.9108	411.0848	480.366	758.825	772.9753	849.0147	889.5718	934.8992	990.7216	1034.0371	1071.9958	1102.2942	1129.1022	1154.3015	1199.1953	1200.5783	1248.8564	1380.6369	1415.1869	1420.1376	1428.2262	1488.1437	1493.698	1494.4906	1501.5181	1513.8887	3025.5423	3029.7956	3082.5598	3084.1129	3096.8642	3107.5034	3121.0279	3124.8249	3136.5533	3204.5901
CC1CC1C	C[C@H]1C[C@H]1C	
InChI=1S/C5H10/c1-4-3-5(4)2/h4-5H,3H2,1-2H3	InChI=1S/C5H10/c1-4-3-5(4)2/h4-5H,3H2,1-2H3/t4-,5+
