14
gdb 4046	6.17811	1.2822	1.07599	3.3688	61.51	-0.2502	-0.011	0.2392	1012.9119	0.107587	-415.863473	-415.856091	-415.855147	-415.895605	26.957	
O	-0.1838850235	 1.3382441804	 0.0079217802	-0.393594
N	 0.0102924145	-0.0534787061	 0.0026078114	-0.202919
C	-1.103004559	-0.6645537921	 0.0085214841	 0.388465
C	-2.4808415522	-0.0286034252	 0.0198985037	-0.241744
N	-3.353040346	-1.1851385353	 0.0232174292	-0.325209
C	-2.7438079331	-2.4117901053	 0.0167788725	 0.423851
O	-3.304215251	-3.4836206455	 0.0188290654	-0.372987
C	-1.228948286	-2.164141303	 0.0051284956	-0.43896
H	 0.7194215861	 1.6729571625	 0.0027564198	 0.312251
H	-2.6089095833	 0.6077305082	 0.9054592511	 0.139944
H	-2.6214991679	 0.6120698003	-0.8606143116	 0.139948
H	-4.3584146512	-1.1223688805	 0.0320229155	 0.255871
H	-0.7846750531	-2.6290787015	-0.8800152508	 0.157553
H	-0.7701340442	-2.6344704468	 0.8799050439	 0.157532
52.7719	141.1616	216.7681	280.9263	387.4961	409.938	461.968	519.2178	523.7947	591.7536	684.1865	704.5848	831.5935	869.3724	921.6038	980.0912	1032.8904	1078.6139	1148.9399	1200.514	1213.3821	1252.8766	1274.3325	1338.4342	1409.0579	1442.9004	1448.1662	1512.6354	1765.4016	1841.3744	3015.1016	3039.5495	3065.2515	3102.2978	3647.9274	3818.2721
ON=C1CNC(=O)C1	ON=C1CNC(=O)C1	
InChI=1S/C4H6N2O2/c7-4-1-3(6-8)2-5-4/h8H,1-2H2,(H,5,7)	InChI=1S/C4H6N2O2/c7-4-1-3(6-8)2-5-4/h8H,1-2H2,(H,5,7)
