16
gdb 4567	5.71748	1.52122	1.21964	0.	75.17	-0.2389	-0.0433	0.1956	991.716	0.131192	-342.850556	-342.842816	-342.841872	-342.883431	27.457	
C	 0.022191675	 1.5137419025	 0.0107228	-0.471916
C	 0.0229239121	 0.0100710265	-0.0078891637	 0.31447
C	-0.3520293585	-0.7228363387	-1.1382240676	-0.064288
N	-0.3570780397	-2.0533170447	-1.1716278176	-0.293246
C	 0.0190309103	-2.6915242896	-0.0567360367	 0.314465
C	 0.0197657319	-4.1951966439	-0.0753327503	-0.471916
C	 0.3939864668	-1.9586111534	 1.0736087146	-0.064283
N	 0.3990328212	-0.6281428266	 1.1070140758	-0.293243
H	 1.0234774382	 1.8949687531	 0.2352085479	 0.142671
H	-0.3006402319	 1.9263946306	-0.9483394803	 0.123177
H	-0.6454853641	 1.8872249582	 0.7936799728	 0.142671
H	-0.6588970112	-0.2108471069	-2.0479855164	 0.106458
H	 0.3428390435	-4.6078579692	 0.8836475699	 0.123178
H	-0.9815838527	-4.5764054255	-0.2995549056	 0.142671
H	 0.6872546163	-4.5686757931	-0.8584511152	 0.142672
H	 0.7008490029	-2.4706073193	 1.9833699925	 0.106458
59.5513	61.9991	123.2948	287.2254	330.5442	391.0694	426.0151	500.8658	508.203	660.5112	741.925	781.7348	875.6576	907.3132	971.4399	987.4652	1028.1625	1053.0661	1061.548	1063.2308	1233.515	1258.9822	1280.1156	1337.2961	1360.6507	1411.6729	1411.8098	1475.6414	1475.9371	1481.3502	1493.8445	1519.7237	1574.0126	1622.0464	3041.1118	3041.1641	3101.7433	3101.789	3124.305	3124.4752	3145.2558	3149.3958
CC1=CN=C(C)C=N1	Cc1cnc(C)cn1	
InChI=1S/C6H8N2/c1-5-3-8-6(2)4-7-5/h3-4H,1-2H3	InChI=1S/C6H8N2/c1-5-3-8-6(2)4-7-5/h3-4H,1-2H3
