10
gdb 2962	4.00784	2.56243	1.74321	3.6984	49.02	-0.3012	-0.1001	0.2011	669.2971	0.065438	-359.29838	-359.29191	-359.290965	-359.329244	21.6	
O	 1.0139958924	 1.1714109004	-1.7656868992	-0.262168
C	 0.2596766886	 1.5223960619	-0.8952870698	 0.303391
C	 0.6494846606	 1.4400767749	 0.5298953028	 0.233935
N	 0.9730562744	 1.3339895141	 1.634537677	-0.307157
C	-1.1117999784	 2.0559047966	-1.1534356607	-0.023633
C	-2.2415877499	 1.659563853	-0.2821739565	-0.181994
O	-1.6419751342	 2.939105683	-0.1699058796	-0.19995
H	-1.2950105063	 2.3114862308	-2.19456583	 0.138838
H	-3.2354662819	 1.6361749803	-0.7245638387	 0.147001
H	-2.0700235753	 0.986593795	 0.5553656847	 0.151737
85.6165	138.3614	220.7532	288.9983	333.6867	459.1907	653.0939	674.5159	754.3835	883.2564	894.5328	958.4054	1087.7898	1157.4585	1162.4068	1222.7384	1259.5442	1384.4593	1516.2875	1797.0793	2342.5377	3098.2118	3154.6214	3195.9058
O=C(C#N)C1CO1	O=C(C#N)[C@H]1CO1	
InChI=1S/C4H3NO2/c5-1-3(6)4-2-7-4/h4H,2H2	InChI=1S/C4H3NO2/c5-1-3(6)4-2-7-4/h4H,2H2/t4-/m1/s1
