13
gdb 2065	5.15103	2.69583	1.85565	4.8544	56.21	-0.2631	-0.0462	0.2169	655.2364	0.103662	-344.499155	-344.493387	-344.492443	-344.528741	21.473	
O	 0.0079911067	 0.0121406285	 0.2796926638	-0.336069
C	 0.0024896192	 1.1764530788	-0.0253625459	 0.415074
O	-1.1841565488	 1.8206035001	-0.1970171091	-0.235169
C	-1.1755589509	 3.1042358408	-0.8384869621	-0.073763
C	-0.1214064661	 4.0405637753	-0.2594189073	-0.273555
C	 1.1968989056	 3.323270612	-0.2099098497	-0.057096
C	 1.2348075331	 1.9898914449	-0.1556874013	-0.178066
H	-0.9924980179	 2.9603248243	-1.9114840553	 0.116839
H	-2.1864045554	 3.4973535797	-0.7123584792	 0.126073
H	-0.0568037919	 4.9414152183	-0.8798941909	 0.122191
H	-0.4047651286	 4.3763494094	 0.7480156868	 0.135107
H	 2.113439196	 3.9069633605	-0.2011168543	 0.115383
H	 2.1579358791	 1.4250274373	-0.1069749054	 0.123052
129.9134	244.2482	329.8589	445.873	484.7157	556.2189	665.6412	732.2306	809.7501	845.1007	895.9724	952.9019	1006.9012	1016.3873	1081.2072	1104.6049	1144.4943	1227.5987	1238.5972	1296.8109	1367.4617	1400.7254	1427.5191	1465.182	1507.5901	1693.1306	1827.7418	3015.4644	3025.8851	3070.2093	3110.5298	3167.445	3214.3244
O=C1OCCC=C1	O=C1OCCC=C1	
InChI=1S/C5H6O2/c6-5-3-1-2-4-7-5/h1,3H,2,4H2	InChI=1S/C5H6O2/c6-5-3-1-2-4-7-5/h1,3H,2,4H2
