11
gdb 746	9.51162	3.77655	2.75015	3.1995	47.14	-0.2624	0.0091	0.2716	463.9201	0.0876	-281.495234	-281.490084	-281.48914	-281.523946	17.404	
C	-0.0718557353	 1.4205951056	 0.0449223772	-0.320162
N	-0.0112471143	-0.0236773171	-0.0121043443	 0.06118
C	 0.3651029218	-0.8295101751	-1.0258886191	 0.018179
N	 0.27672785	-2.0979122096	-0.6692894654	-0.273971
C	-0.1723314423	-2.0074915606	 0.6116948408	 0.041627
N	-0.3629449886	-0.7756752568	 1.0585065267	-0.254282
H	 0.2510144648	 1.8236034093	-0.9166211263	 0.144198
H	-1.0944061896	 1.7468150343	 0.2498430421	 0.157103
H	 0.5851734638	 1.7947476749	 0.8338768081	 0.157075
H	 0.688465096	-0.4516136499	-1.9844972558	 0.141497
H	-0.3643762164	-2.869906115	 1.232461586	 0.127556
92.63	219.5294	358.2337	656.0549	696.0114	700.0957	851.7527	908.874	974.4167	1025.6568	1075.0523	1154.1457	1170.6063	1239.2033	1304.478	1323.7432	1382.626	1451.6283	1473.7995	1474.0921	1525.373	1552.6942	3054.6318	3125.7418	3147.0367	3253.3527	3260.2972
CN1C=NC=N1	Cn1cncn1	
InChI=1S/C3H5N3/c1-6-3-4-2-5-6/h2-3H,1H3	InChI=1S/C3H5N3/c1-6-3-4-2-5-6/h2-3H,1H3
