16
gdb 3390	5.50387	1.8883	1.84209	2.2156	59.69	-0.2318	0.0622	0.294	749.7962	0.1378	-325.714378	-325.707654	-325.70671	-325.745187	25.095	
O	 0.333201064	 1.0708935694	-0.1872006382	-0.413665
C	 0.0990682434	 0.0838758704	 0.8085772942	-0.096897
C	-1.2948333474	-0.4917861501	 0.6739443479	-0.01416
C	-1.6575092392	-1.6894767368	-0.1197722308	-0.049018
C	-0.5967555714	-2.7883477806	-0.0587888573	-0.25114
C	-0.7246020638	-2.6964447946	 1.4814339362	-0.151127
N	-1.8237744152	-1.6634726508	 1.3991258638	-0.157767
H	 0.2216044017	 0.6467197372	-1.0445696465	 0.28323
H	 0.8726579048	-0.6947864686	 0.7821026041	 0.091928
H	 0.1939264217	 0.6025940601	 1.7686268684	 0.120514
H	-2.0463598793	 0.295820182	 0.6534997018	 0.103278
H	-2.5205094129	-1.6989046117	-0.7790824167	 0.095748
H	-0.9531438854	-3.7416626549	-0.4522181442	 0.115252
H	 0.3739825949	-2.5685405065	-0.5146751741	 0.100834
H	-1.1275028927	-3.6029258546	 1.9367335001	 0.114652
H	 0.1537897067	-2.3822552598	 2.0523617014	 0.108337
70.2213	202.6154	242.761	297.6565	338.7284	466.5015	529.9394	734.1456	775.3997	782.721	789.2767	906.0329	947.0042	980.2925	1001.1765	1015.5273	1061.5364	1077.9844	1097.0411	1142.6306	1167.2674	1218.7064	1227.297	1244.5652	1268.4274	1296.5489	1345.9081	1372.9115	1415.1261	1451.9157	1485.1996	1507.171	1514.0971	3011.4476	3048.3512	3061.014	3072.0292	3105.5581	3123.1965	3127.3178	3154.6011	3809.4581
OCC1C2CCN12	OC[C@H]1[C@H]2CCN12	
InChI=1S/C5H9NO/c7-3-5-4-1-2-6(4)5/h4-5,7H,1-3H2	InChI=1S/C5H9NO/c7-3-5-4-1-2-6(4)5/h4-5,7H,1-3H2/t4-,5+,6?/m1/s1
