17
gdb 2217	3.52347	2.80587	2.13625	1.2943	64.16	-0.2392	0.0778	0.317	703.03	0.148316	-309.68974	-309.682658	-309.681713	-309.720174	27.207	
C	-0.0173005604	 1.5597575601	 0.0293090898	-0.494708
C	-0.0316660047	 0.0574795325	 0.0349431437	 0.319389
C	-1.3108856649	-0.7959817136	-0.0007046838	-0.268313
C	-0.6630284234	-1.8138193082	 0.9873917921	-0.216997
C	 0.6145652211	-0.9683052494	 1.0096709383	-0.1632
C	 1.1314372444	-0.7748123371	-0.3895415724	 0.065458
O	 0.9804832634	-1.7325324458	-1.4015557719	-0.424024
H	 0.9863941339	 1.9521181405	 0.2236834471	 0.114819
H	-0.3432888331	 1.9524791859	-0.9419355368	 0.122455
H	-0.6893321608	 1.9682449389	 0.7929024132	 0.114571
H	-2.1645127198	-0.2762541825	 0.4414809785	 0.094877
H	-1.5946866356	-1.179599454	-0.9835672511	 0.107551
H	-1.1708056545	-1.8386593536	 1.9536618432	 0.098685
H	-0.5501684123	-2.8393248525	 0.6231388214	 0.090383
H	 1.2450609935	-0.7974668817	 1.8762147056	 0.076645
H	 2.0699501112	-0.2194293447	-0.4399184645	 0.077609
H	 1.5452398219	-2.4824804948	-1.1870978125	 0.284801
195.0438	207.8543	226.7604	254.3115	293.8637	314.7595	473.5077	561.8638	617.7471	760.2667	781.9423	792.87	888.431	947.8329	955.3635	971.2402	1002.5054	1008.6759	1076.2528	1111.431	1143.0421	1165.3079	1223.886	1238.1424	1246.7256	1265.2554	1297.6367	1313.0466	1347.979	1415.5719	1467.0607	1473.7863	1486.5916	1496.7916	1511.3927	3017.4977	3051.689	3061.8326	3075.6696	3083.9755	3093.7797	3100.6341	3118.9397	3160.4694	3803.9647
CC12CCC1C2O	C[C@]12CC[C@H]1[C@H]2O	
InChI=1S/C6H10O/c1-6-3-2-4(6)5(6)7/h4-5,7H,2-3H2,1H3	InChI=1S/C6H10O/c1-6-3-2-4(6)5(6)7/h4-5,7H,2-3H2,1H3/t4-,5+,6-/m0/s1
