13
gdb 4446	3.63596	1.88312	1.25295	4.7883	57.18	-0.1949	0.0443	0.2392	891.6192	0.097209	-431.964054	-431.956689	-431.955744	-431.995313	27.581	
N	 0.1706763127	 1.4513508698	 0.0783585831	-0.605032
C	 0.023960331	 0.0687988023	-0.0055410092	 0.285861
C	-1.0676221051	-0.7121144988	-0.0050006029	 0.212774
N	-2.4130947127	-0.3723172647	-0.0001568954	-0.601188
O	-0.6535039743	-2.0636811595	 0.017123133	-0.239356
C	 0.7164193261	-2.1013085113	 0.0224626931	 0.474959
O	 1.3828876362	-3.1003717445	 0.0596105406	-0.406093
N	 1.1312872996	-0.7808461978	-0.0261694375	-0.407311
H	 0.7010680993	 1.8365139358	-0.6975979833	 0.250773
H	-0.7433692512	 1.8895545095	 0.1025707492	 0.26242
H	-2.8963057244	-0.6766457133	 0.8403326257	 0.250057
H	-2.9165793763	-0.7423757579	-0.8011473861	 0.249462
H	 2.083250609	-0.5143806096	 0.1575173697	 0.272673
157.1807	216.0502	257.984	278.7634	307.0344	342.8429	355.1209	439.5922	590.1367	631.4288	643.6824	669.7698	764.6747	796.9245	831.6665	854.4552	973.5587	1011.3119	1144.4894	1218.9559	1241.4392	1298.9623	1359.7362	1478.7685	1641.0881	1663.1837	1808.8483	1894.0502	3482.174	3496.6687	3541.3461	3595.9971	3681.7919
NC1=C(N)OC(=O)N1	Nc1c(N)oc(=O)[nH]1	
InChI=1S/C3H5N3O2/c4-1-2(5)8-3(7)6-1/h4-5H2,(H,6,7)	InChI=1S/C3H5N3O2/c4-1-2(5)8-3(7)6-1/h4-5H2,(H,6,7)
