11
gdb 106	7.76429	7.54763	6.46247	1.8725	42.39	-0.2352	0.0994	0.3346	298.4772	0.092109	-231.069318	-231.065445	-231.064501	-231.095721	14.648	
C	-0.0617799769	 1.5931345465	 0.0247177877	-0.208701
C	 1.4325361865	 1.1910902528	 0.0130621278	 0.0658
C	 1.1543471867	 0.1375312004	 1.111872583	-0.208701
C	 0.0595896503	 0.0504060565	 0.0216100325	 0.0658
O	 1.1184261313	 0.1648710123	-1.0095767324	-0.310515
H	-0.4608100994	 2.0801123766	 0.9185500393	 0.094678
H	-0.4307560641	 2.0302805955	-0.9036791498	 0.108494
H	 2.3166213174	 1.8086543446	-0.1490349403	 0.094986
H	 1.8511352368	-0.7009531395	 1.1361979736	 0.108494
H	 0.868487305	 0.4890534998	 2.1068713955	 0.094679
H	-0.7106721536	-0.7065095755	-0.1301896968	 0.094986
512.1617	590.1014	732.8091	780.6568	858.742	876.9791	914.3953	940.2996	982.6472	1001.367	1058.6258	1107.4854	1133.437	1147.3752	1187.8597	1195.2692	1223.5198	1279.5029	1285.039	1468.0104	1505.1245	3058.0729	3065.3572	3111.9145	3118.5308	3145.8563	3150.216
C1C2CC1O2	C1[C@H]2C[C@@H]1O2	
InChI=1S/C4H6O/c1-3-2-4(1)5-3/h3-4H,1-2H2	InChI=1S/C4H6O/c1-3-2-4(1)5-3/h3-4H,1-2H2/t3-,4+
