17
gdb 1931	3.41345	2.89401	2.14953	1.0365	64.6	-0.2387	0.0827	0.3214	701.3287	0.147743	-309.692993	-309.68579	-309.684845	-309.723541	27.719	
C	 0.0268454446	 1.5418086399	 0.0646408036	-0.494692
C	-0.0184420915	 0.0421320888	 0.0773350537	 0.30962
C	 1.1632049939	-0.8216485862	-0.3255291331	-0.390216
C	 0.579104768	-0.9648720457	 1.0541795758	 0.364571
O	 1.3070324057	-0.6891259526	 2.2000425974	-0.46346
C	-0.691183384	-1.8190433404	 1.0203702394	-0.284132
C	-1.292389489	-0.8132172254	-0.0191342524	-0.272326
H	 0.9980751606	 1.9061773	 0.4141189203	 0.124049
H	-0.1370191727	 1.9409823407	-0.9436964916	 0.116056
H	-0.7430185888	 1.9668482318	 0.7189360801	 0.116049
H	 1.0603364327	-1.6068275931	-1.0733687218	 0.096543
H	 2.1117508402	-0.2931199595	-0.3504177963	 0.10692
H	 2.0265010868	-1.3265355777	 2.265601959	 0.28351
H	-0.5791050001	-2.8629346695	 0.7066593679	 0.08677
H	-1.2250986462	-1.7891355053	 1.9729094985	 0.107614
H	-2.1806434821	-0.3017313539	 0.3605731949	 0.100889
H	-1.5188026981	-1.218484802	-1.0109953554	 0.092234
171.7147	191.1643	207.7893	259.9778	332.5049	375.5875	440.6349	506.9142	574.0014	704.8225	719.7996	791.6039	851.7142	918.3779	933.421	966.1941	987.1052	1023.1488	1051.471	1084.4492	1139.5936	1183.7565	1209.9941	1227.9157	1238.3125	1254.2558	1302.6299	1343.749	1406.2943	1424.3336	1479.1147	1482.1637	1487.0389	1497.5726	1525.6326	3020.1385	3036.2892	3045.9304	3077.2692	3090.4547	3092.0077	3099.2275	3112.7301	3190.4045	3792.633
CC12CC1(O)CC2	C[C@@]12C[C@]1(O)CC2	
InChI=1S/C6H10O/c1-5-2-3-6(5,7)4-5/h7H,2-4H2,1H3	InChI=1S/C6H10O/c1-5-2-3-6(5,7)4-5/h7H,2-4H2,1H3/t5-,6-/m1/s1
