17
gdb 4819	6.55911	1.26017	1.07155	1.5727	72.94	-0.1812	0.0464	0.2277	1105.6305	0.142279	-363.880521	-363.872228	-363.871284	-363.913883	29.569	
C	-0.0443149137	 1.3946730958	 0.0395403504	-0.240217
O	-0.0795306392	-0.0144884632	-0.0353681044	-0.267466
C	 0.5811561235	-0.568394394	-1.089015161	 0.336408
C	 0.6404213482	-1.929731874	-1.3037704527	-0.219485
N	 1.370350241	-2.1364381573	-2.4548689441	 0.03059
C	 1.7214988314	-3.4329913078	-2.9892734197	-0.332144
C	 1.7726292502	-0.9323134908	-2.9570168358	-0.081648
C	 1.2999969269	 0.0726083834	-2.1369907756	-0.31846
H	 0.9840818542	 1.7702781452	 0.1329024854	 0.115741
H	-0.5089310599	 1.8594504937	-0.8411167669	 0.115628
H	-0.609357857	 1.6741633693	 0.9310215436	 0.126337
H	 0.226009862	-2.7475297085	-0.73893461	 0.112833
H	 0.8363435673	-4.0735347048	-3.0523229019	 0.138286
H	 2.128095147	-3.3077050518	-3.9947766485	 0.137798
H	 2.4721139824	-3.9368767348	-2.3690355869	 0.136545
H	 2.3642257534	-0.8823125812	-3.8574865494	 0.113322
H	 1.4451983221	 1.1298375808	-2.2860764724	 0.095931
51.8065	68.6161	166.9764	215.8216	217.526	336.7022	341.5114	489.1885	604.427	614.5597	622.7647	668.4779	715.9974	739.2381	770.8768	981.4261	1014.1049	1071.1367	1094.5551	1109.6835	1150.3256	1180.7959	1203.055	1221.5686	1275.742	1378.6167	1412.3119	1428.4825	1456.3679	1482.1739	1483.6847	1486.2157	1509.0914	1522.1169	1547.4383	1618.7893	2992.8141	3026.6184	3046.1359	3086.1661	3124.418	3131.3085	3250.2754	3270.1915	3273.0243
COC1=CN(C)C=C1	COc1cn(C)cc1	
InChI=1S/C6H9NO/c1-7-4-3-6(5-7)8-2/h3-5H,1-2H3	InChI=1S/C6H9NO/c1-7-4-3-6(5-7)8-2/h3-5H,1-2H3
