13
gdb 2077	5.08738	2.60857	1.82993	3.5055	49.93	-0.2687	0.0033	0.2721	656.8586	0.103425	-381.624381	-381.618434	-381.61749	-381.654462	21.446	
O	 0.0174758325	-0.0004248468	 0.3747787769	-0.314911
C	-0.0268933299	 1.1371650527	-0.0002625865	 0.406153
C	-1.3222538091	 1.9318089001	-0.1114092753	-0.332098
C	-1.1964112167	 3.1692491651	-0.9980385048	-0.105355
O	 0.0084356841	 3.8490216117	-0.6683592044	-0.215777
C	 1.101123129	 3.0564193686	-0.9694213166	 0.023761
O	 1.126992775	 1.8025123042	-0.2668130076	-0.22957
H	-2.1082301061	 1.2529456238	-0.4499184392	 0.140385
H	-1.5753981505	 2.237580537	 0.9105086832	 0.152367
H	-1.1889982056	 2.8920109521	-2.0640066686	 0.107016
H	-2.0157486614	 3.8718789095	-0.8335186436	 0.126522
H	 1.142125459	 2.8272608923	-2.0467220318	 0.104486
H	 2.0009084798	 3.5901202997	-0.6602054816	 0.137021
101.6537	157.8727	376.1111	431.3806	470.0495	513.8268	592.8376	743.447	767.7541	877.2265	953.4553	1015.8354	1040.4765	1078.8019	1110.0711	1156.8407	1236.365	1257.3388	1268.5926	1321.594	1350.7392	1406.8556	1451.772	1460.6863	1506.3612	1525.8059	1855.4237	2974.484	2988.672	3053.6143	3109.1051	3118.2732	3124.7986
O=C1CCOCO1	O=C1CCOCO1	
InChI=1S/C4H6O3/c5-4-1-2-6-3-7-4/h1-3H2	InChI=1S/C4H6O3/c5-4-1-2-6-3-7-4/h1-3H2
