13
gdb 4614	5.64029	1.54453	1.2125	4.5832	64.51	-0.2014	-0.04	0.1613	905.932	0.097456	-398.663472	-398.656919	-398.655975	-398.693994	25.303	
O	-0.072755809	 1.4078856918	 0.0110962505	-0.444427
C	 0.0349859026	 0.0442254748	 0.0029172286	 0.297513
C	 1.2083182725	-0.6437069146	-0.0078691457	-0.101621
N	 1.1963331761	-2.0160774264	-0.0153828828	-0.354926
C	 0.0556824737	-2.8305168287	-0.0131160306	 0.424119
O	 0.1583532192	-4.0481492884	-0.0203861328	-0.407251
C	-1.1774720425	-2.058393233	-0.0014668548	-0.237495
C	-1.1821909259	-0.6995614171	 0.0060664086	-0.098568
H	 0.8056762427	 1.8014134075	 0.0080590451	 0.298329
H	 2.1825853993	-0.1687396597	-0.0110413249	 0.118977
H	 2.0691650602	-2.5243061014	-0.0233792631	 0.261205
H	-2.0967025882	-2.6307047272	 0.0008678456	 0.121494
H	-2.1130634107	-0.1412201275	 0.0147082261	 0.122653
129.1762	279.5041	331.9175	356.2721	390.335	462.152	484.3848	506.5099	642.8435	665.2638	751.5245	795.161	818.8048	827.507	858.4119	992.0491	1000.9267	1111.8856	1187.4353	1213.3943	1230.9903	1308.57	1383.2934	1443.8179	1502.8276	1592.0998	1689.7281	1780.7177	3184.5084	3193.8766	3219.4299	3614.8265	3828.0077
OC1=CNC(=O)C=C1	Oc1c[nH]c(=O)cc1	
InChI=1S/C5H5NO2/c7-4-1-2-5(8)6-3-4/h1-3,7H,(H,6,8)	InChI=1S/C5H5NO2/c7-4-1-2-5(8)6-3-4/h1-3,7H,(H,6,8)
