15
gdb 4798	6.85343	1.34147	1.13788	2.5329	64.13	-0.2145	0.0302	0.2447	1033.6868	0.118626	-399.830731	-399.822925	-399.821981	-399.863136	27.449	
C	-0.1029362338	 1.3908968691	 0.0184083033	-0.243986
O	-0.0440468772	-0.0367248769	 0.0570492251	-0.251802
C	-1.1948205072	-0.6944200107	 0.0336265355	 0.493692
N	-1.3304239474	-1.9784062346	 0.0656607077	-0.404159
C	-2.7162566297	-2.1668764299	 0.0190016406	 0.263944
C	-3.3134624266	-3.5319932647	 0.0357574214	-0.487501
C	-3.3262168408	-0.9624421924	-0.0380327376	-0.137742
O	-2.3420665367	 0.0155989815	-0.0298268094	-0.196681
H	 0.9337021696	 1.7257428573	 0.0471287315	 0.14538
H	-0.5837349251	 1.7397756965	-0.9003772222	 0.139911
H	-0.6477920274	 1.7853130397	 0.8813459098	 0.139847
H	-3.0250801464	-4.0706910074	 0.9445396178	 0.13949
H	-4.4046003952	-3.4848338738	-0.0076041544	 0.121695
H	-2.9572954383	-4.1218898911	-0.8153529832	 0.139521
H	-4.3427346378	-0.6148514828	-0.085622736	 0.13839
72.4285	146.501	158.4969	216.13	217.258	324.9185	358.2827	528.0998	636.4478	638.4189	682.3887	741.5007	751.155	959.9835	991.2491	1025.2229	1066.8376	1093.3664	1111.9799	1179.1356	1197.8528	1241.7238	1312.636	1384.7065	1418.5421	1473.7397	1482.8839	1487.0576	1491.7097	1500.3292	1648.7313	1667.2714	3037.7607	3040.3133	3094.3435	3111.0616	3121.5844	3158.0489	3300.6742
COC1=NC(C)=CO1	COc1nc(C)co1	
InChI=1S/C5H7NO2/c1-4-3-8-5(6-4)7-2/h3H,1-2H3	InChI=1S/C5H7NO2/c1-4-3-8-5(6-4)7-2/h3H,1-2H3
