17
gdb 1463	6.07246	1.15686	1.01556	1.4622	69.17	-0.2426	0.0614	0.304	1159.9415	0.145766	-309.695742	-309.6864	-309.685456	-309.731225	31.269	
C	 0.0031892538	 1.4687201537	 0.0010292712	-0.497375
C	 0.0227672289	 0.0126191338	-0.0199402944	 0.052332
C	 0.041754557	-1.1917027497	-0.0263613234	 0.061558
C	 0.0496376137	-2.6533112526	-0.0589692899	-0.134066
C	-1.3610334175	-3.2402642292	 0.1402378277	-0.381849
C	 0.6852980564	-3.1479170626	-1.3689499239	-0.068023
O	 0.7984561544	-4.560236872	-1.2876764199	-0.420411
H	 0.6649111157	 1.8660438869	 0.7788277407	 0.146235
H	 0.3328951316	 1.8860007039	-0.9570409436	 0.14516
H	-1.0045619609	 1.8514348488	 0.1976318508	 0.146395
H	 0.6909019423	-3.0223162066	 0.7536342402	 0.109122
H	-2.0386426138	-2.8813773487	-0.641221399	 0.115711
H	-1.3184457622	-4.3303144101	 0.0925525281	 0.132451
H	-1.7717761814	-2.9401314686	 1.1075661676	 0.117736
H	 0.0523573549	-2.8397901471	-2.2157511968	 0.091905
H	 1.6687323606	-2.6723991607	-1.4958356677	 0.094537
H	 1.1422044464	-4.8841026591	-2.1247879677	 0.288582
12.8739	95.8466	97.9726	161.1677	220.3662	236.001	265.776	298.7823	348.9109	411.6801	497.5591	533.1762	751.0246	873.7427	931.0353	1013.8049	1053.1592	1053.5978	1077.6314	1103.4597	1137.5948	1191.5922	1237.4357	1262.4793	1329.427	1349.5427	1397.0369	1415.1852	1450.7794	1479.1146	1479.6337	1493.3836	1500.2763	1520.7028	2370.5167	2977.1276	3004.9294	3022.085	3024.6598	3044.3748	3084.3316	3084.5653	3114.7649	3137.1771	3837.5596
CC#CC(C)CO	CC#C[C@@H](C)CO	
InChI=1S/C6H10O/c1-3-4-6(2)5-7/h6-7H,5H2,1-2H3	InChI=1S/C6H10O/c1-3-4-6(2)5-7/h6-7H,5H2,1-2H3/t6-/m1/s1
