17
gdb 2694	14.20577	0.86007	0.82911	4.2923	66.25	-0.2469	0.0233	0.2702	1348.6284	0.148123	-305.904722	-305.896238	-305.895294	-305.938123	28.813	
C	-0.0316348676	 1.5460666947	 0.0492557324	-0.380854
C	 0.0075746696	 0.0173454476	-0.0140405295	-0.186295
C	 0.7247592794	-0.5030477136	-1.2583399057	-0.102931
N	 0.7086417188	-1.9635033613	-1.3006987036	-0.298403
C	 1.4158345455	-2.4983055601	-2.4564446226	-0.259865
C	 1.4262832272	-3.9639489977	-2.4411976387	 0.255346
N	 1.4564693122	-5.1182848095	-2.418924839	-0.298064
H	 0.977656914	 1.9719670869	 0.0568994432	 0.117339
H	-0.5620357874	 1.9655173564	-0.8125705879	 0.118901
H	-0.54360256	 1.8890985972	 0.9528346471	 0.119837
H	 0.5116434199	-0.3738497916	 0.88037153	 0.096566
H	-1.0084909544	-0.3921481328	 0.0002063227	 0.116154
H	 0.2122020986	-0.1370296894	-2.158654427	 0.106718
H	 1.7510953802	-0.0888915495	-1.296739128	 0.080488
H	 1.1215584284	-2.3369887929	-0.4514280267	 0.229331
H	 0.9023527656	-2.1674797844	-3.368291337	 0.156222
H	 2.4630873299	-2.1532820699	-2.5487536897	 0.12951
57.1045	102.736	113.7202	143.9148	222.4126	242.9587	375.1382	393.0468	398.3608	580.4703	760.7211	775.1456	897.3852	898.5991	957.9107	996.7632	1037.1433	1065.4134	1145.0327	1149.0863	1180.2106	1244.2237	1288.8658	1318.3792	1327.8059	1371.7355	1413.9021	1425.7032	1488.3933	1492.2006	1496.577	1501.8847	1505.5414	1522.5151	2368.4848	2914.2265	2928.7427	3014.2976	3028.2882	3034.2558	3044.6604	3068.6169	3100.875	3109.9269	3515.2345
CCCNCC#N	CCCNCC#N	
InChI=1S/C5H10N2/c1-2-4-7-5-3-6/h7H,2,4-5H2,1H3	InChI=1S/C5H10N2/c1-2-4-7-5-3-6/h7H,2,4-5H2,1H3
