13
gdb 201	8.67353	3.34371	2.44992	1.6978	55.32	-0.1982	0.0533	0.2515	528.9258	0.109903	-249.395323	-249.38964	-249.388696	-249.424242	20.948	
C	-0.0185285333	 1.5208244052	 0.0156134847	-0.499877
C	 0.002800672	 0.0214744592	 0.0139058472	 0.287177
C	-0.0583896166	-0.7971608466	-1.0917423837	-0.174764
N	-0.0115217112	-2.1024565429	-0.6655548485	-0.230197
C	 0.0790839808	-2.1368142711	 0.7017537466	-0.07429
C	 0.0901296459	-0.8380394	 1.1513949498	-0.231784
H	 0.8879312218	 1.9407809128	 0.4676101021	 0.121653
H	-0.091265628	 1.9157137458	-1.0021872551	 0.115039
H	-0.8694191691	 1.9156454867	 0.5834484269	 0.121653
H	-0.1309840756	-0.5556727798	-2.1406195342	 0.108952
H	-0.0398971601	-2.9077221205	-1.2647611623	 0.258437
H	 0.1275686534	-3.0738703161	 1.2329857804	 0.113027
H	 0.15382608	-0.5279811927	 2.1839805562	 0.084975
102.8087	260.1569	320.7376	450.9233	638.3814	641.3064	643.1104	683.8162	759.8152	825.7519	904.878	968.2928	1002.1315	1064.2037	1083.4294	1092.8505	1162.9554	1278.6248	1297.5428	1405.5805	1418.6924	1466.2731	1483.5011	1500.3934	1524.5866	1617.1391	3022.188	3069.2071	3101.0727	3237.5703	3254.7447	3267.0057	3691.9992
CC1=CNC=C1	Cc1c[nH]cc1	
InChI=1S/C5H7N/c1-5-2-3-6-4-5/h2-4,6H,1H3	InChI=1S/C5H7N/c1-5-2-3-6-4-5/h2-4,6H,1H3
