12
gdb 4659	6.73117	1.35359	1.12696	2.8213	65.71	-0.2052	0.0058	0.211	964.2191	0.084586	-377.532906	-377.526031	-377.525087	-377.563703	26.169	
O	 0.1139086691	 1.3025894241	 0.1321980984	-0.427895
C	 0.0750103134	-0.0332231489	 0.0174047235	 0.436224
N	 0.1042304359	-0.7282148467	-1.0824926589	-0.412506
C	 0.0398801893	-2.0587287941	-0.6584417641	 0.145866
C	-0.0271104024	-2.1161732989	 0.7114176744	-0.19762
N	-0.0036523832	-0.7999334629	 1.1377762628	-0.287694
C	 0.0467046189	-3.1470166292	-1.5615306209	 0.24501
C	 0.0522526719	-4.0765261608	-2.3268639989	-0.4224
H	 0.1681205371	 1.6517456028	-0.7665338667	 0.318003
H	-0.0871079818	-2.9438520986	 1.3963423916	 0.139534
H	-0.037687431	-0.4635012632	 2.0850295937	 0.27784
H	 0.0573693628	-4.8935787835	-3.0044010648	 0.185638
148.3174	152.5822	303.57	402.3107	414.1956	451.6587	507.4859	549.6451	554.0665	563.9833	662.9404	672.4083	735.0429	738.5395	751.516	994.4643	1034.8716	1101.2566	1193.9777	1261.8645	1282.8089	1383.2105	1542.2347	1576.9156	1638.3466	2236.0442	3290.8588	3505.8565	3673.4192	3804.5314
OC1=NC(=CN1)C#C	Oc1nc(c[nH]1)C#C	
InChI=1S/C5H4N2O/c1-2-4-3-6-5(8)7-4/h1,3H,(H2,6,7,8)	InChI=1S/C5H4N2O/c1-2-4-3-6-5(8)7-4/h1,3H,(H2,6,7,8)
