11
gdb 1032	8.39202	2.03273	1.63636	6.8913	55.26	-0.2422	-0.0372	0.205	686.5487	0.080548	-339.481708	-339.476121	-339.475177	-339.511215	19.978	
O	-0.0721472185	-0.0259069993	-0.0010336721	-0.265297
C	 0.0197042378	 1.1779215412	 0.007867802	 0.082546
C	 1.2664064616	 1.9453855526	 0.0009924659	 0.182848
C	 1.3557829124	 3.322781016	 0.0114240076	-0.142569
N	 2.6927850243	 3.6001839658	-0.0007830682	-0.234333
C	 3.3559527408	 2.3975155665	-0.017310249	 0.026366
N	 2.5316970571	 1.3864860821	-0.0169214334	-0.277692
H	-0.8878443531	 1.8266191678	 0.0227380527	 0.057863
H	 0.6060303847	 4.0969880428	 0.0256901276	 0.150911
H	 3.1111353332	 4.5161588857	 0.0021201011	 0.276337
H	 4.4346905996	 2.3415211289	-0.0291527342	 0.143021
135.1991	208.5857	296.5774	497.8994	557.3779	658.4835	700.9703	776.0612	778.8419	845.6116	943.9916	975.3997	1030.371	1094.8837	1118.622	1238.1819	1334.7996	1348.8258	1415.3301	1448.7439	1545.8149	1564.8857	1810.4734	2849.652	3250.9593	3273.4025	3656.4992
O=CC1=CNC=N1	O=Cc1c[nH]cn1	
InChI=1S/C4H4N2O/c7-2-4-1-5-3-6-4/h1-3H,(H,5,6)	InChI=1S/C4H4N2O/c7-2-4-1-5-3-6-4/h1-3H,(H,5,6)
