14
gdb 1154	3.32117	2.23872	1.88754	3.8233	63.13	-0.2851	0.0117	0.2967	752.5708	0.110973	-287.423372	-287.415424	-287.41448	-287.454826	28.717	
C	-0.0195120499	 1.5468085546	-0.0044366471	-0.39609
C	-0.0046293453	-0.0048352842	 0.0048978176	-0.098444
C	 0.7563286028	-0.5301555238	 1.2510172154	-0.396089
C	-1.379160414	-0.5209998121	 0.0004246181	 0.358603
C	-2.5094085018	-0.9245127022	 0.0313162478	-0.470986
C	 0.6921620382	-0.4789037081	-1.2098542978	 0.291811
N	 1.2635201252	-0.8330109664	-2.1494171918	-0.338457
H	 1.0038500165	 1.9306098543	-0.011653109	 0.136608
H	-0.5453288225	 1.9240609815	-0.883357018	 0.147672
H	-0.5305448947	 1.9057419973	 0.8921029663	 0.135654
H	 0.2491820007	-0.1817014991	 2.1538761535	 0.135647
H	 0.7790523314	-1.6213527602	 1.2597410869	 0.147665
H	 1.782610628	-0.1541718065	 1.2485477599	 0.136605
H	-3.5071420646	-1.2891414251	 0.0444669782	 0.2098
132.2243	176.8776	189.9699	236.5069	239.5506	288.2656	345.8283	466.7541	503.9769	580.0983	591.7258	646.5859	662.817	673.2891	890.939	946.2011	956.7011	1042.1116	1140.7343	1212.8915	1244.4478	1395.9342	1418.4335	1479.1303	1482.4885	1493.7561	1506.1452	2243.6602	2359.4112	3051.8673	3054.6698	3132.3582	3136.5818	3143.3894	3144.4807	3500.8968
CC(C)(C#C)C#N	CC(C)(C#C)C#N	
InChI=1S/C6H7N/c1-4-6(2,3)5-7/h1H,2-3H3	InChI=1S/C6H7N/c1-4-6(2,3)5-7/h1H,2-3H3
