19
gdb 3015	5.05888	1.55971	1.30606	1.5094	67.62	-0.2587	0.0769	0.3356	974.2407	0.170534	-310.908741	-310.900329	-310.899385	-310.941423	30.648	
C	-0.0640099139	 1.5396242375	-0.0068598539	-0.382155
C	-0.0599606069	 0.0130623668	-0.1096312936	-0.17976
C	 0.8318339801	-0.5150287679	-1.2422727605	 0.124737
O	 2.1800916349	-0.0641521833	-1.0970113347	-0.43311
C	 0.7542274914	-2.0215730966	-1.3718511185	 0.009458
C	-0.2715022087	-2.6577750903	-2.2781495459	-0.266218
C	 1.1902849335	-2.6909886422	-2.6470680566	-0.271333
H	 0.9546602158	 1.9180883366	 0.1101236048	 0.127845
H	-0.4840291544	 1.9930696391	-0.9117419122	 0.111905
H	-0.6612499092	 1.8799547335	 0.8444608329	 0.106469
H	 0.2878343962	-0.4250681258	 0.8377520035	 0.081241
H	-1.0786019678	-0.3638759525	-0.2630041492	 0.099018
H	 0.5021603535	-0.0676730108	-2.1899418814	 0.076849
H	 2.5501024133	-0.5037318313	-0.3233975187	 0.273563
H	 0.9680313182	-2.5562402092	-0.4470577739	 0.071308
H	-0.746557359	-3.5770388044	-1.954087077	 0.110425
H	-0.9231565844	-1.9998882059	-2.8445567999	 0.111394
H	 1.5277031081	-2.0501910873	-3.4548071464	 0.119037
H	 1.7174225593	-3.6362781259	-2.5812977489	 0.109326
75.0908	106.0476	167.2029	213.609	241.615	267.7174	304.3456	410.4819	483.3601	500.2641	764.0708	781.6833	830.9857	851.867	896.2754	944.3149	978.4152	985.914	1055.0517	1057.796	1077.4399	1100.076	1116.3396	1134.2804	1175.0839	1197.1845	1226.1904	1260.9263	1289.9244	1329.7294	1378.4446	1403.5238	1412.7512	1430.9193	1472.7632	1479.8007	1495.4708	1508.1568	1509.2732	2999.2241	3021.2065	3036.2379	3055.1644	3099.7682	3111.195	3123.0937	3129.3881	3136.1962	3207.4663	3223.0613	3799.1864
CCC(O)C1CC1	CC[C@@H](O)C1CC1	
InChI=1S/C6H12O/c1-2-6(7)5-3-4-5/h5-7H,2-4H2,1H3	InChI=1S/C6H12O/c1-2-6(7)5-3-4-5/h5-7H,2-4H2,1H3/t6-/m1/s1
