16
gdb 4968	3.24316	2.27982	1.36124	2.864	72.78	-0.2437	-0.03	0.2137	890.218	0.132017	-342.854269	-342.846917	-342.845973	-342.885751	27.088	
C	 0.012024939	 1.5272541437	-0.025933285	-0.505398
C	 0.0081772511	 0.023404877	-0.0014780305	 0.21734
C	-0.0151793164	-0.7251689838	-1.1739379428	-0.042387
N	-0.0197033178	-2.0603493141	-1.2024331608	-0.255918
C	 7.418*^-6	-2.6520517804	-0.01044414	 0.063266
N	 0.0233772945	-2.0555467464	 1.1816859907	-0.295283
C	 0.0275383631	-0.7173323205	 1.1935224797	 0.263223
C	 0.0537514163	-0.0464517933	 2.5394672937	-0.487191
H	 0.9014671335	 1.9378443683	 0.465766367	 0.136934
H	-0.0042092673	 1.9001630398	-1.0535869236	 0.129971
H	-0.8581361838	 1.9427481873	 0.4952990435	 0.136955
H	-0.0310651604	-0.2208673766	-2.13953294	 0.10762
H	-0.003054727	-3.7396995692	-0.0055728438	 0.115029
H	 0.9364121754	 0.5949759823	 2.6455268053	 0.13474
H	-0.8225090889	 0.5975385081	 2.6782694798	 0.134795
H	 0.0671708307	-0.8026401823	 3.3247249169	 0.146305
128.3235	157.5158	166.9029	268.9192	285.3598	414.7317	434.5926	530.0143	544.661	615.12	754.6559	776.6464	879.6395	942.2555	990.375	1007.9454	1020.6326	1049.1995	1080.5295	1158.7302	1206.0798	1253.5049	1285.6697	1321.4499	1405.4458	1421.6893	1435.1427	1461.2252	1478.371	1480.325	1492.4753	1501.3409	1591.6256	1622.4281	3028.3898	3032.6916	3079.6941	3083.5411	3112.4289	3135.9393	3150.812	3161.8632
CC1=CN=CN=C1C	Cc1cncnc1C	
InChI=1S/C6H8N2/c1-5-3-7-4-8-6(5)2/h3-4H,1-2H3	InChI=1S/C6H8N2/c1-5-3-7-4-8-6(5)2/h3-4H,1-2H3
