13
gdb 1938	8.81385	1.5332	1.42043	2.1494	60.68	-0.2472	-0.0263	0.2209	818.965	0.099791	-307.291354	-307.284574	-307.283629	-307.322289	24.887	
O	-0.0001604842	 0.0241833213	-0.1577054629	-0.281385
C	-0.0135526004	 1.202270044	 0.0423897328	 0.397782
C	-1.1340217304	 2.2280245789	 0.273891747	-0.345912
C	-0.0320437911	 3.246208744	 0.7417010933	-0.168611
C	 1.0843255458	 2.2583132224	 0.2440238392	-0.345913
C	-0.0580088471	 4.5695805628	 0.1553366837	 0.309754
C	-0.0797265586	 5.6601995174	-0.3507381698	-0.448725
H	-1.6130527719	 2.5257814174	-0.6635693432	 0.146264
H	-1.9063037157	 1.954479825	 0.996141803	 0.137322
H	-0.0183290299	 3.3179896709	 1.8329799284	 0.11549
H	 1.8829315101	 2.0062088301	 0.9451402618	 0.137322
H	 1.5296637045	 2.5686898115	-0.7058716671	 0.146264
H	-0.0988374211	 6.6265736344	-0.7904199462	 0.200348
58.1523	164.505	222.5167	404.8252	435.1709	488.2972	530.3895	619.6693	624.9912	641.2391	673.8558	740.7723	909.6614	913.1981	994.6428	1033.5321	1086.2363	1099.3064	1180.0378	1192.7263	1230.9063	1238.6235	1348.0283	1426.8675	1445.462	1900.8845	2237.2806	3065.0947	3065.3673	3070.1979	3128.0572	3128.4534	3504.3656
O=C1CC(C1)C#C	O=C1CC(C1)C#C	
InChI=1S/C6H6O/c1-2-5-3-6(7)4-5/h1,5H,3-4H2	InChI=1S/C6H6O/c1-2-5-3-6(7)4-5/h1,5H,3-4H2
