10
gdb 3963	7.66212	2.0159	1.69422	1.922	44.22	-0.3046	-0.0789	0.2257	670.7022	0.066444	-392.565188	-392.559225	-392.55828	-392.595658	20.149	
O	 0.0899007955	 1.3573566151	-0.2147799749	-0.400666
C	 0.0261586653	 0.0125310195	 0.2081000302	-0.162781
C	-1.3770532364	-0.5121347001	 0.1716373925	 0.407825
N	-2.0216413075	-1.0791788671	 1.1481140493	-0.141869
O	-3.2401018828	-1.3684797994	 0.6297118798	-0.134635
N	-3.2816823278	-0.937847927	-0.6907420725	 0.054123
N	-2.1661582279	-0.4282702846	-0.9641062621	-0.208579
H	-0.218564883	 1.3981912025	-1.1270555561	 0.304677
H	 0.6661444213	-0.6428527432	-0.4017686453	 0.126888
H	 0.3917291133	-0.0252769659	 1.2362746592	 0.155018
61.9172	167.5843	280.1745	370.4802	445.5852	670.791	691.8324	700.6955	788.4984	954.4952	984.2675	1061.8654	1075.7585	1095.0146	1203.5355	1316.1385	1379.6654	1417.3726	1483.7682	1491.6805	1599.6435	2997.0157	3119.4512	3808.4683
OCC1=NON=N1	OCc1nonn1	
InChI=1S/C2H3N3O2/c6-1-2-3-5-7-4-2/h6H,1H2	InChI=1S/C2H3N3O2/c6-1-2-3-5-7-4-2/h6H,1H2
