12
gdb 335	5.76079	2.56761	1.90777	2.3065	52.76	-0.2536	-0.0324	0.2213	632.3767	0.093434	-269.207716	-269.20074	-269.199796	-269.238596	23.743	
C	 0.0378332379	 1.5156543228	 0.0126379204	-0.399457
C	-0.0320792477	-0.0307112927	-0.0238586278	-0.211339
C	 0.7127540354	-0.5816983282	 1.1975846631	 0.169987
O	 1.8100269891	-1.0661440135	 1.152409647	-0.238573
C	-1.4072910716	-0.5146326687	-0.0192947375	 0.305934
C	-2.5378857822	-0.9200847899	 0.0302520915	-0.463428
H	 1.0790856473	 1.8454408061	-0.0338012931	 0.136121
H	-0.5057102871	 1.9347975705	-0.837070829	 0.140996
H	-0.4150717178	 1.9034379844	 0.9298568111	 0.134564
H	 0.4991124545	-0.3969341058	-0.9090953142	 0.128768
H	 0.1546104199	-0.4688676231	 2.1535515811	 0.091153
H	-3.5362248075	-1.2818532821	 0.0537065973	 0.205276
62.3245	168.6654	201.0269	226.1607	311.028	449.3291	505.6688	543.5464	635.3688	650.9868	855.8853	906.1314	957.8733	1079.802	1093.7373	1143.2323	1266.4527	1321.4645	1397.9749	1417.1127	1492.2119	1497.3863	1840.8046	2234.9779	2890.0479	3046.42	3057.2843	3123.8828	3133.1766	3502.6079
CC(C=O)C#C	C[C@@H](C=O)C#C	
InChI=1S/C5H6O/c1-3-5(2)4-6/h1,4-5H,2H3	InChI=1S/C5H6O/c1-3-5(2)4-6/h1,4-5H,2H3/t5-/m1/s1
