12
gdb 4667	7.30753	1.31151	1.11298	4.5524	59.36	-0.2279	-0.052	0.176	970.8693	0.084738	-414.704009	-414.697162	-414.696217	-414.735084	24.776	
N	 0.3532711416	 1.319308193	 0.4138818842	-0.590023
C	 0.012512414	 0.0211455642	 0.1558323816	 0.463588
N	-1.091861699	-0.5957739158	 0.4277488309	-0.374345
C	-0.8456863894	-1.91098283	 0.0194177655	 0.158134
C	-1.8453288411	-2.9748958783	 0.1461523537	 0.069769
O	-1.6658690694	-4.120356803	-0.2032899269	-0.271077
C	 0.4111645385	-1.9984526222	-0.4864776665	-0.093855
O	 0.9812349136	-0.7564271027	-0.4045654218	-0.172266
H	 1.0462097383	 1.7169436855	-0.2022620498	 0.271126
H	-0.4402950094	 1.9177687646	 0.5859170712	 0.278113
H	-2.801156919	-2.6375651204	 0.5983892952	 0.086959
H	 1.0067965914	-2.786035705	-0.9115305174	 0.173875
119.4567	178.4074	230.3938	302.7122	341.1604	392.6205	499.7073	567.1634	637.9514	743.1847	760.2922	778.8791	784.8417	946.5627	1018.6339	1044.974	1119.9473	1135.3942	1245.3214	1287.8643	1411.4504	1436.4445	1595.6654	1609.741	1699.2824	1794.6977	2921.9331	3312.0631	3584.4357	3694.4531
NC1=NC(C=O)=CO1	Nc1nc(C=O)co1	
InChI=1S/C4H4N2O2/c5-4-6-3(1-7)2-8-4/h1-2H,(H2,5,6)	InChI=1S/C4H4N2O2/c5-4-6-3(1-7)2-8-4/h1-2H,(H2,5,6)
