11
gdb 427	5.44207	3.89064	2.47394	2.9069	42.57	-0.2481	0.0012	0.2493	503.6554	0.085902	-322.439472	-322.433831	-322.432887	-322.468624	19.618	
N	 0.0668941623	 1.4997607921	 0.1711750457	-0.509636
C	-0.0236427257	 0.0691667579	 0.004528363	-0.141139
C	-1.4260349412	-0.5545792236	-0.1568207769	-0.079962
O	-1.0099668423	-1.2034290085	-1.400270907	-0.237988
C	 0.2267313451	-0.601485901	-1.3698420711	 0.417781
O	 1.0768029426	-0.6397316293	-2.1994870772	-0.319385
H	 1.0359158596	 1.782210913	 0.2747588632	 0.24844
H	-0.2921653777	 1.9839308353	-0.6466736579	 0.240637
H	 0.5644041431	-0.4203395352	 0.7860091391	 0.124742
H	-1.7363523678	-1.2911645838	 0.5860283458	 0.129538
H	-2.2245872079	 0.1677865229	-0.3421827266	 0.126971
140.3065	221.9843	248.9583	371.3036	516.6586	702.1305	742.9405	812.658	868.4384	953.1998	962.0609	1005.6333	1108.8328	1152.4192	1170.1966	1221.6182	1254.0894	1333.9149	1428.8161	1516.6868	1668.002	1934.4545	3072.2884	3080.5142	3137.1262	3499.9298	3581.4883
NC1COC1=O	N[C@H]1COC1=O	
InChI=1S/C3H5NO2/c4-2-1-6-3(2)5/h2H,1,4H2	InChI=1S/C3H5NO2/c4-2-1-6-3(2)5/h2H,1,4H2/t2-/m0/s1
