16
gdb 3093	3.324	2.54241	2.20163	1.5462	62.96	-0.2295	-0.0343	0.1952	706.9569	0.135102	-325.754527	-325.74683	-325.745886	-325.785862	27.546	
C	 0.1004343395	 1.5052838728	-0.800928403	-0.430904
C	 0.152885641	 0.0388997756	-0.4382769418	 0.016831
C	 0.8740792636	-1.0064124481	-1.2866339978	-0.122094
C	 1.5715727503	-0.6152853211	-2.5350788827	 0.149647
O	 2.24631198	 0.376734085	-2.7124130537	-0.278053
N	 1.3227705767	-0.6291404223	 0.0652768452	-0.095856
C	 2.5818238775	 0.084152536	 0.2696387598	-0.328637
H	 0.1008035333	 2.1150253053	 0.1095045818	 0.125827
H	 0.9383453929	 1.8090884959	-1.4282485017	 0.162406
H	-0.8286194507	 1.7186013034	-1.3388751714	 0.123607
H	-0.7672356274	-0.3324865332	 0.0149327434	 0.101615
H	 0.437520796	-2.0023795423	-1.3398303431	 0.095594
H	 1.4273844652	-1.3488569948	-3.3600649788	 0.081633
H	 2.8540028662	 0.784336516	-0.5248755962	 0.149008
H	 2.5095408488	 0.6204175737	 1.2209879197	 0.123449
H	 3.3803906971	-0.6578824022	 0.3627585803	 0.125927
157.6357	169.1661	183.7395	207.9121	224.0848	273.7814	376.3264	404.4833	521.8897	683.1252	755.0648	810.4211	833.7385	952.7519	997.8077	1047.2395	1064.0682	1108.7973	1140.2823	1163.7553	1168.1456	1195.9592	1348.6001	1381.6305	1396.9243	1422.5526	1432.444	1451.6036	1480.5987	1498.2192	1500.1224	1521.9439	1787.0299	2876.3259	3035.6823	3041.3828	3091.6737	3098.5481	3106.6919	3114.3676	3121.5368	3155.0878
CC1C(C=O)N1C	C[C@H]1[C@@H](C=O)N1C	
InChI=1S/C5H9NO/c1-4-5(3-7)6(4)2/h3-5H,1-2H3	InChI=1S/C5H9NO/c1-4-5(3-7)6(4)2/h3-5H,1-2H3/t4-,5+,6?/m0/s1
