14
gdb 839	7.07489	1.96699	1.55388	0.8606	59.72	-0.1782	0.0676	0.2458	766.9122	0.113849	-324.614194	-324.607134	-324.606189	-324.644825	26.021	
C	-0.0193293163	 1.5150215611	 0.0219247306	-0.498135
C	 0.0069247797	 0.0169346842	 0.0114895009	 0.306233
C	-0.0956600527	-0.792529123	-1.0904311809	-0.190582
N	-0.0274463742	-2.1104088487	-0.6639112687	-0.294514
C	 0.1172694522	-2.1312790467	 0.6903620368	 0.393031
O	 0.2031226368	-3.3456130605	 1.2940716399	-0.436097
C	 0.1441980875	-0.8397659893	 1.1563479412	-0.392615
H	 0.9007144915	 1.9358598591	 0.4453554698	 0.11981
H	-0.1278570733	 1.9128834814	-0.9914868356	 0.115852
H	-0.8518895852	 1.904235999	 0.6205399554	 0.119881
H	-0.2108155435	-0.5537668829	-2.1350199934	 0.108971
H	-0.0739231185	-2.9320878583	-1.2397404858	 0.26261
H	 0.3011526945	-3.2024855093	 2.2399270509	 0.306328
H	 0.2485642813	-0.5341059662	 2.1866329891	 0.079228
118.5904	198.8602	221.6774	276.3512	304.918	428.9896	441.3573	584.2966	631.4193	642.5012	683.7166	740.2378	742.416	980.6752	1000.8043	1014.1365	1063.4341	1114.283	1168.0866	1188.1926	1285.2715	1331.9179	1414.6083	1419.8288	1481.5248	1495.6792	1545.8919	1581.5549	1641.3172	3019.3218	3065.0679	3100.9187	3237.26	3266.3651	3691.4283	3850.9353
CC1=CNC(O)=C1	Cc1c[nH]c(O)c1	
InChI=1S/C5H7NO/c1-4-2-5(7)6-3-4/h2-3,6-7H,1H3	InChI=1S/C5H7NO/c1-4-2-5(7)6-3-4/h2-3,6-7H,1H3
