12
gdb 3751	4.18894	3.44385	1.91264	3.5698	52.72	-0.2243	0.0024	0.2268	625.4992	0.090913	-356.684693	-356.678225	-356.677281	-356.716883	22.06	
C	 0.0255945761	 1.4309078041	 0.04154503	-0.32651
N	-0.0048747919	-0.0149522661	-0.0054282388	-0.092113
C	-0.1240747316	-0.8472017111	-1.0774819306	 0.065778
N	-0.1165912502	-2.0990873462	-0.7717002232	-0.141559
O	 0.0217759994	-2.1081149925	 0.6506070938	-0.248546
C	 0.0902958695	-0.8236215012	 1.1191382981	 0.493575
N	 0.2135668951	-0.4088146372	 2.3086058907	-0.611407
H	 0.9656400139	 1.7741283143	 0.4820310079	 0.161399
H	-0.0678420551	 1.8226258074	-0.9725480111	 0.13855
H	-0.7972197944	 1.8053714323	 0.6565499117	 0.161504
H	-0.2167922004	-0.4938769965	-2.0940103185	 0.164055
H	 0.2635848796	-1.1841757274	 2.96428003	 0.235275
11.495	164.5561	221.408	272.4358	479.1644	592.2719	667.5162	729.7208	756.8567	777.6087	876.1684	888.6615	933.1848	1034.4713	1085.2855	1161.7926	1222.4534	1236.2412	1348.3326	1437.9637	1465.7545	1470.1779	1522.971	1657.3495	1777.7735	3050.7035	3116.0941	3147.6958	3258.3536	3541.9172
CN1C=NOC1=N	CN1C=NO[C@@H]1[NH]	
InChI=1S/C3H5N3O/c1-6-2-5-7-3(6)4/h2,4H,1H3	InChI=1S/C3H6N3O/c1-6-2-5-7-3(6)4/h2-4H,1H3/t3-/m1/s1
