14
gdb 4351	3.71396	1.98148	1.30251	1.9038	67.54	-0.241	-0.0431	0.1979	889.292	0.108809	-378.78905	-378.782215	-378.781271	-378.82024	25.442	
C	 0.0202677937	 1.4788657189	 0.0707664245	-0.471039
C	 0.0066482083	-0.0219642311	 0.0014992277	 0.312805
C	-0.1784128249	-0.7126302398	-1.1938883431	-0.075335
N	-0.1901570592	-2.0503767595	-1.2530799624	-0.224019
C	-0.0171076064	-2.7096111106	-0.1184488842	-0.077817
C	 0.1696504569	-2.0152157205	 1.0879497774	 0.395136
O	 0.3431135771	-2.7134630923	 2.2257983821	-0.412604
N	 0.1820898637	-0.6944248814	 1.1518444405	-0.391962
H	 0.9734928529	 1.8350329075	 0.4746258036	 0.142756
H	-0.1300969355	 1.9249609371	-0.9149127161	 0.127877
H	-0.7666044586	 1.8385258463	 0.7416390079	 0.142757
H	-0.3209034976	-0.1776366709	-2.1280343241	 0.107518
H	-0.022241918	-3.7950108359	-0.1378753706	 0.12383
H	 0.4528851677	-2.0606456777	 2.9317152567	 0.300095
86.3314	196.6755	227.9536	295.6805	452.6834	469.4125	531.3133	557.2796	583.6346	629.721	731.0762	782.9946	887.1758	942.3267	972.8862	1024.7237	1051.5625	1059.6524	1179.825	1200.9966	1268.0148	1310.9612	1358.9319	1411.2382	1460.0329	1475.55	1495.2979	1505.971	1595.7106	1634.139	3041.4471	3100.6303	3129.5003	3171.0487	3178.6655	3760.4621
CC1=CN=CC(O)=N1	Cc1cncc(O)n1	
InChI=1S/C5H6N2O/c1-4-2-6-3-5(8)7-4/h2-3H,1H3,(H,7,8)	InChI=1S/C5H6N2O/c1-4-2-6-3-5(8)7-4/h2-3H,1H3,(H,7,8)
