16
gdb 459	6.71122	3.17565	2.34459	0.1489	61.16	-0.2335	0.0313	0.2648	587.2379	0.144419	-234.516241	-234.51027	-234.509326	-234.545523	22.613	
C	-0.4711152479	 1.4398777918	-0.0138744636	-0.402185
C	 0.1644934551	 0.0510006084	 0.014376034	 0.057203
C	 1.1362476374	-0.2369714049	-1.1644518004	-0.256163
C	 2.1876786712	-1.125572901	-0.5440545905	-0.059386
C	 2.1117770839	-1.1332633165	 0.7857720447	-0.059389
C	 0.9960045287	-0.2511770331	 1.2927135914	-0.256163
H	 0.2958888839	 2.2218073666	 0.0344249616	 0.112231
H	-1.0485171061	 1.5972834198	-0.9314210944	 0.11075
H	-1.1492719132	 1.5870812433	 0.8337671092	 0.11075
H	-0.6347729142	-0.6987096293	-0.0355765285	 0.075274
H	 0.6275661192	-0.698794459	-2.0188593834	 0.097959
H	 1.5894865057	 0.6912077892	-1.5454271376	 0.098761
H	 2.9308252969	-1.65324964	-1.1323063187	 0.086819
H	 2.7835180018	-1.6681708692	 1.4486356988	 0.08682
H	 1.4023425683	 0.6722496131	 1.7334587823	 0.098761
H	 0.3937187894	-0.7224877493	 2.0783137951	 0.097959
99.4208	251.8855	314.1348	395.3859	421.8263	576.5403	712.3607	776.2306	819.0032	905.7963	924.3639	934.9401	975.9407	978.9612	991.9241	1067.4766	1109.268	1133.8344	1146.6412	1166.8093	1237.4348	1294.5585	1310.7601	1332.446	1372.6028	1374.7705	1411.6472	1486.4367	1493.3217	1498.4121	1501.7476	1687.782	2990.3162	2990.4547	3018.9357	3024.3838	3046.7957	3053.1903	3091.3757	3092.9024	3176.8767	3202.7994
CC1CC=CC1	C[C@H]1CC=CC1	
InChI=1S/C6H10/c1-6-4-2-3-5-6/h2-3,6H,4-5H2,1H3	InChI=1S/C6H10/c1-6-4-2-3-5-6/h2-3,6H,4-5H2,1H3
