13
gdb 3860	7.5802	2.03758	1.61434	3.2027	56.52	-0.1886	0.049	0.2376	725.2955	0.104507	-336.831068	-336.824264	-336.823319	-336.861257	25.332	
N	 0.1236583996	 1.3927916864	 0.1351698348	-0.60704
C	-0.0392098381	 0.0077090237	 0.0521633943	 0.407744
C	-1.1677842285	-0.7895669505	 0.0573101123	-0.362064
C	-0.6586168264	-2.1157398524	 0.0515134167	 0.385616
N	-1.4026827909	-3.2957655278	 0.1157130825	-0.59009
N	 0.6662343308	-2.1504607576	 0.0297976268	-0.318109
N	 1.0263010743	-0.8257086395	 0.0296293452	-0.252186
H	 0.7795823088	 1.75981625	-0.5444756301	 0.248586
H	-0.7576904344	 1.8789958925	 0.0406379584	 0.254389
H	-2.1962582052	-0.4668665125	 0.0600963407	 0.082862
H	-2.2289270196	-3.2764258418	-0.4671231131	 0.240754
H	-0.8307676909	-4.098859222	-0.1146859685	 0.246216
H	 1.9913572206	-0.5829238985	 0.1657752499	 0.263319
168.2381	207.8753	258.5483	287.2894	311.0968	420.8179	460.053	612.5761	652.2943	684.6812	718.0585	753.0213	783.6896	800.3286	997.2716	1049.0453	1086.387	1107.3481	1193.8024	1207.8186	1346.1817	1456.4644	1528.694	1571.4168	1620.8248	1646.91	1662.2996	3259.6931	3531.1942	3538.4821	3629.1174	3633.3586	3688.4964
NC1=CC(N)=NN1	Nc1cc(N)n[nH]1	
InChI=1S/C3H6N4/c4-2-1-3(5)7-6-2/h1H,(H5,4,5,6,7)	InChI=1S/C3H6N4/c4-2-1-3(5)7-6-2/h1H,(H5,4,5,6,7)
