15
gdb 3492	3.96236	3.76526	3.68303	1.4317	58.18	-0.2302	0.0964	0.3266	522.6969	0.128882	-308.516508	-308.511846	-308.510902	-308.544559	19.965	
C	-0.022136898	 1.5917022773	 0.0060597172	-0.220869
C	 1.4880275053	 1.8020360932	-0.0011049853	-0.106791
C	 2.1009735936	 0.6344750887	 0.7811789858	-0.106791
C	 0.942516167	-0.2458031836	 1.237222007	-0.220869
C	 0.0494044412	 0.0478272425	 0.010510952	 0.056695
O	 0.9252337543	-0.2334200665	-1.0954888202	-0.2602
C	 2.0190415969	 0.5880778647	-0.7264402604	 0.097899
H	-0.5211532532	 1.9937343355	 0.8922967056	 0.099045
H	-0.5091142147	 1.9766125454	-0.8941488903	 0.104982
H	 1.9567622071	 2.7744961812	-0.062885788	 0.086686
H	 3.037161744	 0.7165121284	 1.3159960785	 0.086686
H	 1.2127606474	-1.3032815763	 1.3034439942	 0.104982
H	 0.4862459827	 0.0748080015	 2.1780139695	 0.099045
H	-0.8766900962	-0.5121588164	-0.0996390865	 0.079283
H	 2.8540629825	 0.5673099144	-1.4117054893	 0.100218
416.258	434.6272	553.9906	667.7264	709.6983	796.8167	807.5265	807.8534	891.5503	891.5742	943.168	944.3157	960.1381	979.1428	981.6528	1028.266	1047.3561	1051.738	1083.1453	1092.6717	1144.0532	1176.0158	1216.9665	1247.401	1268.0638	1279.9822	1317.7372	1342.178	1386.7487	1474.9026	1494.135	3056.4087	3061.6204	3107.7508	3112.0287	3150.4535	3206.7404	3212.0272	3228.4042
C1C2C3CC1OC23	C1[C@H]2[C@H]3C[C@@H]1O[C@@H]23	
InChI=1S/C6H8O/c1-3-2-5-4(1)6(5)7-3/h3-6H,1-2H2	InChI=1S/C6H8O/c1-3-2-5-4(1)6(5)7-3/h3-6H,1-2H2/t3-,4+,5-,6+
