12
gdb 1639	4.44417	2.08939	1.63351	1.8522	47.74	-0.2551	-0.0474	0.2077	727.7918	0.088835	-397.692021	-397.684852	-397.683908	-397.723425	25.313	
N	 0.6068160499	 0.1799113719	-0.7613903595	-0.508641
C	-0.1690499615	 0.4602379118	 0.307391289	 0.350221
O	 0.0967320972	 1.2357931313	 1.2044922661	-0.366269
C	-1.490217012	-0.3412467401	 0.3384071052	-0.034146
O	-1.7106720339	-1.1201621387	-0.803389644	-0.437815
C	-1.4855628387	-1.2132455952	 1.5839993615	 0.13667
O	-1.7120171605	-2.3962796246	 1.5031648265	-0.260341
H	 1.4683840441	 0.6828932024	-0.8917335856	 0.268771
H	 0.2513505097	-0.4369085285	-1.4735013548	 0.278783
H	-2.2825253569	 0.4125963998	 0.473427161	 0.135479
H	-1.8418002223	-2.0261124214	-0.4726698342	 0.300107
H	-1.2585579052	-0.7020364886	 2.5349440686	 0.137181
73.2936	138.8424	232.4853	316.1822	333.6875	359.4907	473.6549	524.0614	540.8999	638.4836	699.7291	757.3871	824.9976	930.0933	1031.7127	1095.4768	1166.1291	1221.0899	1310.6524	1359.4183	1372.6755	1416.8563	1589.1355	1797.995	1816.6543	2989.5695	3007.4491	3594.6462	3645.3697	3735.963
NC(=O)C(O)C=O	NC(=O)[C@@H](O)C=O	
InChI=1S/C3H5NO3/c4-3(7)2(6)1-5/h1-2,6H,(H2,4,7)	InChI=1S/C3H5NO3/c4-3(7)2(6)1-5/h1-2,6H,(H2,4,7)/t2-/m0/s1
