13
gdb 3142	4.45537	2.77889	1.97865	1.402	55.86	-0.2588	0.011	0.2698	647.0292	0.103161	-340.600021	-340.594014	-340.59307	-340.629822	22.242	
N	-0.0969860269	 1.1903540355	-0.2842137922	-0.561892
C	-0.0555975785	-0.0260981112	 0.0156283903	 0.388002
O	 0.9801123239	-0.8414609523	 0.4304548583	-0.266045
C	 0.1157242161	-2.0304178584	 0.4372168669	-0.143038
C	-1.0522984786	-1.1388115484	 0.0274554691	 0.208462
C	-2.4782630294	-1.0732487198	 0.4149954054	-0.292006
N	-2.0808654408	-1.4158985672	-0.9595175416	-0.353825
H	 0.8136913174	 1.6414597297	-0.1929966557	 0.233694
H	 0.4396600594	-2.7569536009	-0.3112816909	 0.134058
H	 0.0768007024	-2.4793217215	 1.4322294464	 0.126608
H	-2.9178858121	-1.8907985379	 0.9794441641	 0.129987
H	-2.8887162701	-0.0879097162	 0.6177118803	 0.14141
H	-2.1808793029	-0.6077942414	-1.5714385203	 0.254585
150.9683	218.6446	231.252	343.4687	481.6285	605.0926	691.7013	765.145	828.9152	856.4747	890.5051	938.9724	962.4804	989.367	1005.8371	1060.5084	1091.207	1129.2125	1143.3685	1211.623	1267.927	1291.1794	1333.0605	1443.801	1509.8701	1513.8303	1827.9271	3067.9621	3112.0008	3131.2638	3204.1812	3490.9071	3492.1488
N=C1OCC11CN1	[NH][C]1OC[C@]21CN2	
InChI=1S/C4H6N2O/c5-3-4(1-6-4)2-7-3/h5-6H,1-2H2	InChI=1S/C4H6N2O/c5-3-4(1-6-4)2-7-3/h5-6H,1-2H2/t4-/m0/s1
