15
gdb 4808	5.57656	1.29899	1.14076	2.4654	64.3	-0.2008	0.0087	0.2095	1035.8518	0.121055	-396.003249	-395.995483	-395.994539	-396.036023	28.258	
N	 0.1854984745	 1.4137726161	-0.2367600158	-0.498034
C	-0.1084006981	 0.0092846801	 0.0829096578	-0.253872
C	 0.6802324731	-0.5628337458	 1.2187835842	 0.375394
N	 0.2797345056	-0.8104149275	 2.4306812674	-0.344476
C	 1.4118546833	-1.2589022809	 3.0962234253	 0.259819
N	 1.3153468809	-1.6837498065	 4.4156853946	-0.59685
C	 2.4634804208	-1.2514465745	 2.2339723929	-0.127784
O	 1.9918118241	-0.8035031057	 1.0156481026	-0.179459
H	 0.0310849254	 1.9834470041	 0.591039727	 0.232596
H	 1.1727273109	 1.5066039128	-0.4601091492	 0.234362
H	-1.1665136692	-0.0819340745	 0.339145512	 0.138464
H	 0.0681578496	-0.5867216393	-0.818906112	 0.127533
H	 0.5269404134	-1.2595353855	 4.8854918088	 0.254888
H	 2.1636602816	-1.5723746443	 4.9525712533	 0.247579
H	 3.5040623542	-1.5153249984	 2.2858386912	 0.129842
33.899	136.9845	228.7806	249.782	304.5314	336.0792	401.9755	456.5535	624.4211	638.7169	653.2992	734.5254	743.2414	786.914	876.0366	910.7718	984.0803	1022.9912	1095.2397	1103.4949	1122.535	1165.4029	1248.8614	1343.9087	1366.5158	1390.6024	1405.3156	1469.7727	1595.167	1634.6374	1665.5813	1674.6246	3054.4045	3115.9536	3302.5947	3484.2544	3556.3664	3563.046	3655.1946
NCC1=NC(N)=CO1	NCc1nc(N)co1	
InChI=1S/C4H7N3O/c5-1-4-7-3(6)2-8-4/h2H,1,5-6H2	InChI=1S/C4H7N3O/c5-1-4-7-3(6)2-8-4/h2H,1,5-6H2
