13
gdb 2255	4.08646	3.11142	2.09071	1.5596	55.26	-0.2443	0.0186	0.2629	626.2045	0.102641	-340.59595	-340.58981	-340.588866	-340.625606	23.52	
N	-0.10023142	 1.4787342531	-0.1817617208	-0.593416
C	-0.0324462396	 0.0755823947	-0.0192547328	 0.182148
C	-0.3600691302	-0.872977872	-1.1789267261	-0.31812
C	-1.1203187354	-0.9813570181	 0.0917776429	 0.06235
O	-0.3302870448	-1.7361049175	 1.0513185564	-0.276609
C	 0.6405296272	-0.731712002	 1.0555038902	 0.387486
N	 1.6401927936	-0.565402459	 1.7918195563	-0.55945
H	-0.1157927092	 1.9450988832	 0.7199187629	 0.245236
H	 0.7116075372	 1.8235644447	-0.6846622092	 0.245132
H	-0.873233779	-0.3665091793	-1.9906334385	 0.134519
H	 0.3254871556	-1.663417483	-1.4674881397	 0.130447
H	-2.1862443032	-0.9191065592	 0.2567916135	 0.128977
H	 1.7398151279	-1.3266833855	 2.4654038747	 0.2313
161.6957	268.2237	271.776	338.6197	462.667	481.3594	635.9044	698.8394	741.8527	798.4635	860.757	882.8178	898.2217	919.8776	931.4469	999.8463	1024.9616	1063.0924	1085.9796	1171.4982	1246.4565	1279.5439	1298.1275	1419.5897	1489.0382	1667.339	1827.1257	3125.7367	3221.2091	3230.9341	3478.4326	3499.5853	3573.282
NC12CC1OC2=N	N[C@]12C[C@H]1O[C]2[NH]	
InChI=1S/C4H6N2O/c5-3-4(6)1-2(4)7-3/h2,5H,1,6H2	InChI=1S/C4H6N2O/c5-3-4(6)1-2(4)7-3/h2,5H,1,6H2/t2-,4-/m1/s1
