9
gdb 1376	7.44813	1.57744	1.30174	3.5985	48.87	-0.3116	-0.0961	0.2154	814.4597	0.054026	-375.393636	-375.386992	-375.386048	-375.424914	21.441	
N	-0.223677211	 1.3027179494	 0.0119204895	-0.398602
C	-0.0213516267	 0.0670742823	 0.0024385125	 0.123092
O	-1.1439786165	-0.7523648364	 0.0091407389	-0.186066
C	-0.9490541328	-2.0879605285	-0.0004447044	 0.382558
O	 0.0981632047	-2.667897815	-0.0142286396	-0.309613
C	-2.2451433221	-2.7692023523	 0.0086283301	 0.265084
N	-3.236392261	-3.3612760305	 0.0151853819	-0.292984
H	 0.662167601	 1.8065610674	 0.0057064788	 0.254965
H	 0.9121889444	-0.4933677164	-0.0106047777	 0.161566
95.0949	117.2632	144.3861	281.4101	320.736	496.4481	532.8256	640.3406	770.8638	852.0147	929.9152	990.9159	1065.016	1227.8037	1246.7381	1386.6989	1752.7237	1829.9347	2364.1688	3154.6019	3514.633
N=COC(=O)C#N	[NH][CH]OC(=O)C#N	
InChI=1S/C3H2N2O2/c4-1-3(6)7-2-5/h2,5H	InChI=1S/C3H2N2O2/c4-1-3(6)7-2-5/h2,5H
