13
gdb 3234	5.62921	2.71215	2.3632	3.2974	52.71	-0.2477	0.046	0.2936	596.0315	0.099958	-344.35722	-344.351352	-344.350408	-344.386523	22.618	
C	-0.0808800796	 1.5314181467	 0.0619367419	-0.510784
C	 0.1303983491	 0.0561801767	 0.02012602	 0.402812
O	-0.7810306136	-0.8214295748	 0.6805814539	-0.252355
C	 0.6105101571	-0.9346565743	 0.986788018	-0.100038
C	 1.3011576509	-1.7518982153	-0.1775920806	-0.00864
O	 0.2995486794	-2.1049134941	-1.1284555024	-0.20904
C	 0.8168016981	-0.7767053682	-1.1522421525	-0.060463
H	 0.8313106071	 2.062345234	-0.2303162782	 0.127771
H	-0.8787119983	 1.8289942812	-0.6279608179	 0.137494
H	-0.3625758318	 1.8484088827	 1.069478035	 0.139455
H	 0.9239443262	-0.847780827	 2.0201138348	 0.109832
H	 2.2100471377	-2.3385411858	-0.1340989732	 0.112998
H	 1.2468977177	-0.4015832417	-2.073214299	 0.110957
192.1936	235.307	282.847	425.113	472.6973	579.9638	695.3802	760.6759	777.2954	824.3164	839.079	868.6891	898.0685	983.5382	987.5572	1010.64	1042.8832	1098.3063	1158.5729	1200.1688	1235.3461	1258.1081	1362.7588	1406.5098	1465.6538	1485.1162	1495.146	3033.1773	3094.967	3121.4603	3186.4284	3192.3178	3206.2366
CC12OC1C1OC21	C[C@]12O[C@H]1[C@H]1O[C@@H]21	
InChI=1S/C5H6O2/c1-5-3-2(6-3)4(5)7-5/h2-4H,1H3	InChI=1S/C5H6O2/c1-5-3-2(6-3)4(5)7-5/h2-4H,1H3/t2-,3+,4-,5+/m0/s1
