12
gdb 3413	5.10669	3.02794	2.1331	3.8469	55.62	-0.2364	-0.0593	0.1771	590.1178	0.091966	-323.367866	-323.362573	-323.361629	-323.396791	20.341	
O	 0.0374087922	-0.0074807831	-0.0589205783	-0.326855
C	-0.0053671085	 1.1974711763	-0.0036724268	 0.432223
C	-1.2178134825	 2.0645975318	 0.0816912451	-0.19715
C	-0.8734469826	 3.3575003082	 0.0126403767	-0.028215
C	 0.6149993506	 3.5178544548	-0.0618487415	-0.090582
N	 1.2720899444	 2.9983699215	 1.1698920079	-0.321759
C	 1.1800160194	 2.1523559312	-0.0567947446	-0.1693
H	-2.2127965915	 1.6563207247	 0.2005233717	 0.12179
H	-1.5530790635	 4.2003233864	 0.0579685896	 0.123369
H	 1.0683517784	 4.3423975046	-0.5992215778	 0.106177
H	 2.2232043508	 3.3666246591	 1.2150702711	 0.23808
H	 2.0834031328	 1.8628648945	-0.5792070532	 0.112223
177.6267	315.9023	422.9303	449.0076	622.2361	718.8285	758.3808	794.4402	836.6218	859.3818	871.9476	920.2361	941.5575	990.9695	1041.755	1095.9324	1132.1511	1148.1889	1182.8451	1260.4971	1337.4678	1366.6345	1385.6937	1634.1721	1826.3234	3184.0646	3198.505	3203.6339	3233.5995	3456.9583
O=C1C=CC2NC12	O=C1C=C[C@H]2N[C@@H]12	
InChI=1S/C5H5NO/c7-4-2-1-3-5(4)6-3/h1-3,5-6H	InChI=1S/C5H5NO/c7-4-2-1-3-5(4)6-3/h1-3,5-6H/t3-,5-/m1/s1
