12
gdb 1035	8.02784	2.14145	1.6905	2.3278	58.85	-0.2311	-0.0376	0.1934	681.5415	0.092027	-323.431776	-323.426165	-323.425221	-323.461175	20.718	
O	-0.0886050964	-0.0361457762	-0.0007667232	-0.288718
C	-0.0229033179	 1.1645059058	 0.0083972529	 0.178531
N	 1.166277775	 1.8842752775	 0.0004610549	-0.026814
C	 2.4446257158	 1.3400592974	-0.0181943564	-0.066955
C	 3.3352780326	 2.3724512851	-0.0203008609	-0.163614
C	 2.5871783453	 3.5994411394	-0.0023712453	-0.169076
C	 1.2645432015	 3.2724879067	 0.010015421	-0.074606
H	-0.9025664128	 1.8331416682	 0.0228371308	 0.098136
H	 2.5647395765	 0.2704052299	-0.0277890085	 0.152733
H	 4.4103367676	 2.277500735	-0.03317684	 0.112494
H	 2.9920528958	 4.5997144366	 0.0007812934	 0.111959
H	 0.3745027068	 3.8807650244	 0.0247392311	 0.135931
142.7902	236.6104	276.7435	529.1054	615.3462	621.6739	704.4356	771.281	799.7297	844.9994	875.7898	886.3828	979.8282	1031.2287	1061.4889	1094.5404	1113.3095	1272.8455	1314.3819	1355.7945	1434.1474	1448.9131	1513.5608	1594.5066	1826.9199	2976.4003	3246.1703	3257.0909	3273.4099	3295.5945
O=CN1C=CC=C1	O=Cn1cccc1	
InChI=1S/C5H5NO/c7-5-6-3-1-2-4-6/h1-5H	InChI=1S/C5H5NO/c7-5-6-3-1-2-4-6/h1-5H
