14
gdb 4526	3.62449	1.8716	1.24586	1.7704	61.72	-0.1744	0.044	0.2184	917.2344	0.10947	-412.070355	-412.062747	-412.061803	-412.101644	29.086	
N	 0.0740212499	 1.297668241	 0.1200241428	-0.588066
C	-0.0324382067	-0.0689149987	 0.0175774158	 0.454463
N	-1.1330076882	-0.7624948218	-0.0016908021	-0.387306
C	-0.686328961	-2.0791760447	-0.0188992509	 0.26927
N	-1.5949914509	-3.124614911	-0.1111353677	-0.599252
C	 0.6688145782	-2.1274745859	-0.0086220379	 0.171251
N	 1.5786991241	-3.1703322556	-0.0264639048	-0.606949
O	 1.1061855517	-0.7687639116	 0.002929799	-0.218435
H	 0.9067548049	 1.6848631517	-0.2992680717	 0.26005
H	-0.7723100655	 1.7748836938	-0.1538582876	 0.266779
H	-2.4573902869	-2.9250121327	 0.3777859306	 0.248662
H	-1.1976680141	-4.0090548184	 0.1759849808	 0.248389
H	 2.1214104265	-3.2407668778	-0.8817895954	 0.240446
H	 2.2142988281	-3.1786636283	 0.7646175491	 0.240697
185.434	221.8715	245.8581	287.8842	300.3015	327.6387	345.6579	401.2439	543.3278	601.7213	649.5835	651.0917	671.9194	740.4121	744.7067	775.8208	843.0394	1006.4524	1044.5681	1100.1019	1151.7491	1210.786	1327.3878	1414.8962	1460.4808	1600.0215	1626.7617	1660.8461	1673.4658	1764.3206	3481.2124	3542.41	3546.0452	3572.9912	3648.3296	3681.5291
NC1=NC(N)=C(N)O1	Nc1nc(N)c(N)o1	
InChI=1S/C3H6N4O/c4-1-2(5)8-3(6)7-1/h4-5H2,(H2,6,7)	InChI=1S/C3H6N4O/c4-1-2(5)8-3(6)7-1/h4-5H2,(H2,6,7)
