15
gdb 3046	11.1664	1.04416	1.02089	2.7579	58.69	-0.2522	-0.0231	0.2291	1095.2583	0.12322	-345.638912	-345.631336	-345.630392	-345.671797	25.526	
O	-0.1211179268	 0.0652612995	 0.1709832959	-0.234733
C	-0.0224032789	 1.2453754239	-0.0440938086	 0.15546
C	 1.2776676703	 2.0122117233	-0.1056631904	-0.264986
C	 1.4511950562	 2.7370383066	-1.4546675243	-0.233678
C	 2.6761437445	 3.6195052152	-1.4596378912	 0.100327
C	 2.693594392	 4.9352932207	-2.1088785097	-0.179157
O	 2.586789549	 4.8199743033	-0.6878359841	-0.234977
H	-0.9287052014	 1.8713155242	-0.2257168492	 0.071445
H	 1.2605919735	 2.7710509636	 0.6888954195	 0.138873
H	 2.1027921386	 1.3217809604	 0.0918048571	 0.121586
H	 1.5305662425	 2.0028332305	-2.265953454	 0.117675
H	 0.5684600314	 3.3542043098	-1.6595107363	 0.11041
H	 3.6279220493	 3.0962496008	-1.347840933	 0.097079
H	 3.6316975498	 5.3488362978	-2.4759911857	 0.119118
H	 1.79889956	 5.2931499704	-2.6170031759	 0.115558
56.6517	74.5209	103.1136	170.2103	309.0327	379.6956	464.0771	528.351	761.2352	793.5231	861.3313	874.1782	954.0259	1007.8363	1022.7687	1067.0407	1111.3795	1150.5179	1161.5138	1173.8671	1215.9935	1262.0129	1296.2769	1312.7844	1360.5108	1429.3704	1447.7583	1463.1746	1482.3764	1530.2508	1837.4578	2848.0618	3022.617	3031.9906	3069.2442	3083.44	3093.7781	3104.7814	3170.5403
O=CCCC1CO1	O=CCC[C@H]1CO1	
InChI=1S/C5H8O2/c6-3-1-2-5-4-7-5/h3,5H,1-2,4H2	InChI=1S/C5H8O2/c6-3-1-2-5-4-7-5/h3,5H,1-2,4H2/t5-/m0/s1
