19
gdb 4037	3.31177	1.4804	1.24518	0.5893	74.93	-0.235	0.0158	0.2508	1054.4434	0.163085	-365.018423	-365.009236	-365.008291	-365.052231	33.964	
C	 0.2867130622	 1.449080457	 0.0103186814	-0.482152
C	 0.0227489382	-0.0349777029	 0.0356116306	 0.288995
N	-0.1714195452	-0.7061375617	 1.1069825328	-0.175698
O	-0.1116857386	 0.1014972072	 2.2570412758	-0.400409
C	 0.0017486315	-0.7851370232	-1.2612832188	 0.293289
C	-0.9359609608	-0.2161125177	-2.3147149302	-0.468791
C	 1.3268384258	-1.3641570946	-1.732042621	-0.292632
C	 0.2261542613	-2.273284607	-1.2433872648	-0.299896
H	 0.810077559	 1.7362127357	-0.9042444905	 0.124526
H	-0.6520149235	 2.0136023043	 0.0565461022	 0.141609
H	 0.8789270483	 1.7426281887	 0.8790944839	 0.149613
H	-0.2402769465	-0.5445221714	 2.9591142629	 0.30376
H	-0.7028655022	 0.8273839217	-2.5518617047	 0.117456
H	-0.8605358207	-0.7897926251	-3.2433413261	 0.116671
H	-1.9777420178	-0.2592361502	-1.9778508857	 0.123541
H	 1.5433843171	-1.330429267	-2.795045798	 0.107233
H	 2.1928682337	-1.2346781158	-1.0920357699	 0.115682
H	 0.3488232031	-2.7499997301	-0.279881917	 0.131228
H	-0.3101136549	-2.864045208	-1.9784004929	 0.105975
48.6658	102.3567	167.5305	216.0437	230.2528	298.0067	335.3597	346.6206	362.8385	429.9246	491.0793	525.2532	581.9319	730.9957	789.1592	855.4332	875.9705	937.801	953.1274	963.3952	1020.6586	1040.7803	1054.6844	1068.6085	1080.6788	1125.1737	1179.3003	1190.8371	1300.0667	1347.6292	1397.1062	1410.8459	1416.7946	1465.2537	1476.8074	1484.5225	1494.395	1499.5034	1509.2639	1717.8917	3029.1109	3041.6328	3092.02	3104.5664	3106.2225	3127.0611	3142.2109	3144.3228	3212.6124	3240.4498	3823.1394
CC(=NO)C1(C)CC1	CC(=NO)C1(C)CC1	
InChI=1S/C6H11NO/c1-5(7-8)6(2)3-4-6/h8H,3-4H2,1-2H3	InChI=1S/C6H11NO/c1-5(7-8)6(2)3-4-6/h8H,3-4H2,1-2H3
