12
gdb 4449	3.70026	1.88786	1.25858	4.5218	52.89	-0.2005	0.045	0.2456	870.0679	0.08472	-451.841066	-451.833928	-451.832984	-451.872205	26.547	
N	-0.1216720796	 1.3844395868	 0.0731943847	-0.608635
C	-0.1122867692	-0.0007336014	 0.0247482395	 0.134959
C	-1.1372122431	-0.8636175171	 0.0295213849	 0.373695
O	-2.4676258971	-0.6854611327	 0.0808228245	-0.424156
N	-0.6170188671	-2.146419184	-0.0326167379	-0.420602
C	 0.7671647879	-2.0858388363	-0.0775406142	 0.48145
O	 1.5578480088	-2.9878012991	-0.1355751062	-0.403062
O	 1.0855149657	-0.7530454498	-0.0419581681	-0.237444
H	 0.3413420426	 1.7624060763	 0.8946291291	 0.252732
H	 0.2856513656	 1.8195275683	-0.7494727098	 0.252731
H	-2.6200966373	 0.268286692	 0.1190849614	 0.315815
H	-1.1360262073	-3.0067604529	-0.0449445579	 0.282518
148.135	207.0544	254.4685	318.3582	339.4883	352.0034	406.1775	469.2008	591.4039	641.7018	644.3572	675.828	765.3404	795.293	852.2421	972.7651	1016.5343	1179.9368	1218.6373	1242.2008	1303.7672	1383.2689	1526.875	1664.3698	1815.8836	1898.7279	3482.7446	3542.2822	3694.2765	3784.2991
NC1=C(O)NC(=O)O1	Nc1c(O)[nH]c(=O)o1	
InChI=1S/C3H4N2O3/c4-1-2(6)5-3(7)8-1/h6H,4H2,(H,5,7)	InChI=1S/C3H4N2O3/c4-1-2(6)5-3(7)8-1/h6H,4H2,(H,5,7)
