15
gdb 615	7.16614	2.26831	2.01306	2.3104	53.26	-0.2467	0.072	0.3186	656.974	0.131723	-287.660591	-287.653782	-287.652837	-287.691203	24.284	
C	 0.0988826296	 1.5128919625	-0.2129933782	-0.394565
C	 0.0346248567	 0.0373701791	 0.103366173	 0.004549
N	 1.3067666176	-0.7062641375	 0.1495066878	-0.350147
C	 0.4880336963	-0.5898023424	 1.3758356824	-0.031216
C	 1.1703409769	 0.1384488086	 2.5115179423	-0.061505
O	 2.2853462371	-0.6001951037	 2.9825158314	-0.422991
H	 0.9849605414	 1.9787266027	 0.2220681475	 0.130619
H	 0.143309831	 1.6645437303	-1.2967886722	 0.12138
H	-0.78963203	 2.0317044887	 0.1629217917	 0.118003
H	-0.8004999171	-0.4741242796	-0.3753623718	 0.083646
H	 1.1998709998	-1.6275553576	-0.2648607969	 0.232753
H	-0.0476069023	-1.4850717239	 1.688614047	 0.08749
H	 1.469391733	 1.1480176633	 2.1972365532	 0.08803
H	 0.4861235896	 0.244849814	 3.3601302539	 0.105831
H	 2.8269220402	-0.7711600645	 2.202280509	 0.288122
69.4472	160.0862	217.9768	268.6396	401.3716	445.4399	465.5523	546.0581	770.5952	827.4122	888.5245	955.4835	979.5513	1014.387	1040.9354	1072.8179	1097.5366	1159.8532	1186.6463	1244.6971	1274.8979	1280.7492	1362.8974	1397.6871	1415.4144	1444.1066	1467.6052	1491.551	1499.5271	1506.811	3008.2172	3038.2833	3072.3273	3096.6964	3099.406	3119.0794	3136.7037	3510.2939	3784.5439
CC1NC1CO	C[C@H]1N[C@H]1CO	
InChI=1S/C4H9NO/c1-3-4(2-6)5-3/h3-6H,2H2,1H3	InChI=1S/C4H9NO/c1-3-4(2-6)5-3/h3-6H,2H2,1H3/t3-,4+/m1/s1
