15
gdb 2880	6.59349	1.88541	1.58293	0.8494	68.09	-0.2439	0.0193	0.2632	782.1877	0.12556	-271.360631	-271.354023	-271.353079	-271.391083	25.015	
C	-0.0657027897	-1.2411070582	-0.0797093042	-0.469934
C	-0.0267013253	-0.0400257474	-0.0387972534	 0.315339
C	 0.0224186589	 1.4167781239	 0.0169640082	-0.184192
C	-0.6205302516	 2.0235329707	 1.3044930508	-0.215453
C	 0.2236174397	 3.2796954513	 1.628868169	-0.258118
C	 1.5265165545	 3.007592948	 0.9147039149	-0.067483
C	 1.428336778	 2.0025175872	 0.0495295316	-0.059582
H	-0.0999827476	-2.3016354074	-0.1169669474	 0.192881
H	-0.4980660035	 1.8027762113	-0.8736242522	 0.108136
H	-1.683991315	 2.2346891517	 1.1735218008	 0.104613
H	-0.5241611629	 1.2949717405	 2.1136921935	 0.119483
H	-0.2431397222	 4.1973422311	 1.2432833816	 0.107907
H	 0.3485179121	 3.42975916	 2.7068979504	 0.10682
H	 2.4179824579	 3.6040497169	 1.0752340015	 0.096141
H	 2.2120173368	 1.6362627004	-0.6025946552	 0.103442
95.0846	158.8753	226.1249	379.0268	501.6477	520.8273	576.6496	618.085	631.9115	748.4168	767.9772	851.9467	858.56	925.2606	970.8796	978.0564	1026.5383	1051.6831	1070.956	1132.2996	1164.7682	1221.9127	1274.8473	1295.8053	1315.8014	1332.7289	1376.1533	1483.4867	1499.0943	1686.9088	2234.6477	2975.7107	3008.1291	3056.0514	3071.2293	3117.4803	3187.325	3216.8362	3504.541
C#CC1CCC=C1	C#C[C@H]1CCC=C1	
InChI=1S/C7H8/c1-2-7-5-3-4-6-7/h1,3,5,7H,4,6H2	InChI=1S/C7H8/c1-2-7-5-3-4-6-7/h1,3,5,7H,4,6H2/t7-/m1/s1
