12
gdb 279	5.28135	3.3693	2.10993	0.0005	47.03	-0.2408	-0.0826	0.1582	581.337	0.092927	-306.406578	-306.399338	-306.398393	-306.43831	23.569	
C	 0.2193550203	 1.4985660792	-0.0009575182	-0.47417
C	 0.2558611235	-0.0086057973	 0.0356071186	 0.290481
O	 0.3051878545	-0.666097977	 1.0491266531	-0.270481
C	 0.2267552053	-0.7245418359	-1.3388441108	 0.290481
C	 0.2631330476	-2.2317169247	-1.3022704361	-0.474169
O	 0.17764042	-0.0670436304	-2.3523698683	-0.270481
H	 1.0658334152	 1.8799178826	-0.5808901063	 0.156631
H	-0.6812207195	 1.8389549076	-0.5219119529	 0.156619
H	 0.2443545878	 1.8929395582	 1.0149369022	 0.140919
H	-0.5839130572	-2.6129380086	-0.7230635594	 0.156621
H	 0.2388326427	-2.6260831808	-2.3181843897	 0.140919
H	 1.1631978797	-2.572250623	-0.7805477722	 0.15663
48.0994	101.3594	110.3982	236.8753	351.764	359.3756	523.366	537.7229	627.1307	683.5126	905.2035	954.9883	1009.6946	1072.2474	1131.8501	1280.6519	1381.324	1387.6962	1452.281	1452.709	1457.6979	1462.523	1805.9671	1809.5198	3049.9027	3049.9399	3110.8687	3111.0889	3161.8372	3162.463
CC(=O)C(C)=O	CC(=O)C(=O)C	
InChI=1S/C4H6O2/c1-3(5)4(2)6/h1-2H3	InChI=1S/C4H6O2/c1-3(5)4(2)6/h1-2H3
