13
gdb 3765	7.49234	2.17377	1.72127	2.4901	56.13	-0.2756	-0.0171	0.2585	715.5256	0.102635	-336.816043	-336.809205	-336.808261	-336.84777	22.699	
C	-0.0465124867	 1.437199574	 0.0217156609	-0.318022
N	-0.0093417215	-0.0106877603	 0.0289108004	 0.155985
N	-0.0060450475	-0.7335193482	-1.0828145803	-0.126378
N	 0.0314837581	-1.9851232226	-0.7028383287	-0.25757
C	 0.0499817271	-1.975392898	 0.6546827091	 0.389868
C	 0.0929835787	-3.2026487194	 1.4976353086	-0.478089
N	 0.0247859906	-0.7366673431	 1.1410101882	-0.301548
H	 0.8417725604	 1.8336782434	 0.5181684688	 0.160385
H	-0.0694837267	 1.7555484546	-1.0196987935	 0.17194
H	-0.9394337307	 1.7880431468	 0.5435362833	 0.160389
H	 0.9856701776	-3.793878408	 1.2735994677	 0.149052
H	 0.1030822276	-2.9321595678	 2.5544861423	 0.144954
H	-0.776972787	-3.8363250513	 1.3017135031	 0.149033
39.6665	97.9962	178.5586	275.6929	319.389	427.5349	641.051	697.1397	736.1527	776.0885	999.2987	1043.9664	1055.1958	1071.4164	1103.5757	1152.0016	1255.2675	1305.4615	1399.6317	1411.4326	1427.0856	1449.9854	1476.7377	1479.1533	1485.5622	1506.9714	1547.7701	3053.1962	3064.6756	3111.8196	3136.8419	3148.6895	3176.4793
CN1N=NC(C)=N1	Cn1nnc(C)n1	
InChI=1S/C3H6N4/c1-3-4-6-7(2)5-3/h1-2H3	InChI=1S/C3H6N4/c1-3-4-6-7(2)5-3/h1-2H3
