10
gdb 3835	5.84774	2.84618	1.91441	2.164	53.88	-0.2716	-0.0818	0.1899	594.9412	0.067389	-355.416555	-355.41127	-355.410326	-355.4457	19.351	
N	-0.0909607191	 1.3205632955	-0.1485042583	-0.499771
C	 0.006182787	 0.053960717	 0.0181401917	 0.21097
C	 1.2214487506	-0.7466135533	 0.119625371	 0.004442
N	 1.2473572763	-2.01940332	 0.2872894073	-0.041559
O	 0.0482160406	-2.6924468396	 0.3799722027	-0.221406
N	-1.1789284512	-2.0491636772	 0.2992944561	-0.057204
C	-1.1853874708	-0.7772355367	 0.1316781174	 0.071479
H	 0.8357548294	 1.751458017	-0.2083934709	 0.226872
H	 2.2006887652	-0.2759773123	 0.0543554868	 0.145438
H	-2.1672421081	-0.3154289904	 0.0741034361	 0.16074
125.5896	406.2083	420.6936	424.5231	523.1019	649.9395	738.5658	782.0762	797.8409	875.0256	909.748	944.8486	974.3528	1051.5898	1152.2872	1290.206	1334.433	1418.2847	1626.0207	1647.6478	1712.967	3156.7213	3183.9408	3433.5596
N=C1C=NON=C1	[NH][C]1C=NON=C1	
InChI=1S/C3H3N3O/c4-3-1-5-7-6-2-3/h1-2,4H	InChI=1S/C3H3N3O/c4-3-1-5-7-6-2-3/h1-2,4H
