10
gdb 249	10.30398	2.31232	1.8886	1.994	42.07	-0.2743	0.0024	0.2767	600.144	0.0727	-338.531538	-338.524995	-338.52405	-338.562187	21.164	
N	-0.1109714859	 1.2878789645	-0.023074172	-0.560999
C	 0.092445233	-0.0488255569	-0.0061709839	 0.526748
O	 1.1571602594	-0.6131131646	-0.0041107509	-0.383565
O	-1.1385989952	-0.6783101039	-0.0013033291	-0.217498
C	-1.1372412523	-2.0472201943	 0.0001979025	 0.125239
N	-2.2474656634	-2.6389432574	 0.0093475011	-0.429812
H	 0.6889967984	 1.8921878288	 0.027895401	 0.278705
H	-1.0393397504	 1.6668740753	 0.0344835969	 0.278971
H	-0.1301441433	-2.4651144666	-0.0071101952	 0.144565
H	-2.0974398202	-3.646643405	 0.0088161996	 0.237644
84.2388	123.5652	136.1417	236.2651	447.6999	538.3231	558.02	678.5771	776.8119	849.4278	929.0741	1071.8244	1092.92	1107.7496	1277.916	1346.3305	1391.3021	1605.7052	1751.4234	1860.1496	3137.0881	3510.6325	3630.9049	3769.3851
NC(=O)OC=N	NC(=O)O[CH][NH]	
InChI=1S/C2H4N2O2/c3-1-6-2(4)5/h1,3H,(H2,4,5)	InChI=1S/C2H4N2O2/c3-1-6-2(4)5/h1,3H,(H2,4,5)
