15
gdb 55	4.69474	4.66938	4.47909	1.384	49.04	-0.2601	0.0664	0.3265	449.0573	0.134977	-233.560626	-233.553779	-233.552834	-233.589759	25.128	
C	-0.0085599915	 1.5427014693	 0.0015271699	-0.402112
C	 0.0050677976	 0.0070263488	 0.0185616025	 0.360402
C	 0.7613773109	-0.5183919609	 1.2476644348	-0.402113
C	-1.4201277427	-0.5493318327	-0.0211600848	-0.37973
O	 0.6259047686	-0.483637453	-1.1765705663	-0.457482
H	 1.0136140596	 1.9402077641	 0.0028112842	 0.099375
H	-0.5145966922	 1.9070246584	-0.8970578062	 0.120148
H	-0.522148149	 1.9488251392	 0.8791834391	 0.111873
H	 0.2813061273	-0.2016554804	 2.1794359806	 0.111873
H	 0.7996550594	-1.6113174592	 1.2302254859	 0.120148
H	 1.7909691632	-0.1407293531	 1.2608300255	 0.099376
H	-1.9385482932	-0.1991072369	-0.9182828117	 0.118795
H	-1.3993763236	-1.6425906229	-0.0456383289	 0.118794
H	-1.9885072537	-0.2305965608	 0.8572652044	 0.108407
H	 1.5311118793	-0.1548804601	-1.192102219	 0.272245
186.3512	246.4331	260.1459	289.1106	333.3787	335.0518	408.4085	456.0388	460.2421	747.2231	905.1646	918.1467	936.2894	954.4929	1026.1101	1042.9658	1164.404	1239.07	1255.8404	1369.8746	1394.4014	1403.1393	1424.4296	1470.6879	1479.7196	1483.5302	1495.6907	1504.7388	1515.1414	3021.6035	3027.1883	3043.7494	3086.3289	3093.8456	3111.3882	3112.93	3118.8001	3121.9234	3804.2401
CC(C)(C)O	CC(C)(C)O	
InChI=1S/C4H10O/c1-4(2,3)5/h5H,1-3H3	InChI=1S/C4H10O/c1-4(2,3)5/h5H,1-3H3
