17
gdb 2213	3.599	3.14612	2.23168	1.8333	63.45	-0.2382	0.0719	0.3101	672.7954	0.148765	-309.688639	-309.68199	-309.681046	-309.719025	25.334	
C	-0.136119553	 1.5382569099	 0.1140746281	-0.500429
C	 0.0329589641	 0.0404877099	 0.0116999965	 0.313623
C	-1.227261041	-0.8663251025	 0.1693158469	-0.283088
C	-0.4892481679	-1.7227150964	 1.2457784095	-0.225721
C	 0.782148039	-0.8743155868	 1.0337804227	 0.082587
O	 1.6351469567	-1.3997015445	-0.0039601478	-0.294372
C	 1.0529785689	-0.5251508892	-0.9968271834	-0.114861
H	 0.8317918963	 2.0487115723	 0.1666784261	 0.1194
H	-0.6732118274	 1.9319758594	-0.7578977895	 0.119911
H	-0.7116949675	 1.8152770298	 1.0041161963	 0.116944
H	-2.0964546256	-0.330055886	 0.558837032	 0.10034
H	-1.532339122	-1.3951142265	-0.7379416922	 0.099333
H	-0.9186718068	-1.6209811665	 2.2464645522	 0.099327
H	-0.3539082052	-2.7833696871	 1.0241148192	 0.110332
H	 1.3503391933	-0.5311548246	 1.9038990765	 0.068252
H	 0.6476360617	-1.0763051539	-1.8555914012	 0.095218
H	 1.7862384462	 0.2089889626	-1.3590692919	 0.093204
92.3638	209.4876	243.4161	332.352	378.7604	388.8841	618.4921	671.4302	738.9869	844.1353	863.0496	882.2263	930.0249	949.4231	967.7689	1006.8043	1028.1157	1033.1646	1111.7219	1151.1785	1168.6744	1193.3028	1223.9552	1238.2195	1257.5857	1277.1488	1289.3708	1325.9325	1380.6419	1413.7874	1463.0466	1487.1372	1492.6214	1493.4728	1526.083	2994.2408	3019.7185	3039.9583	3052.9114	3054.3153	3067.0586	3081.6751	3093.3625	3100.6916	3123.4145
CC12CCC1OC2	C[C@]12CC[C@H]1OC2	
InChI=1S/C6H10O/c1-6-3-2-5(6)7-4-6/h5H,2-4H2,1H3	InChI=1S/C6H10O/c1-6-3-2-5(6)7-4-6/h5H,2-4H2,1H3/t5-,6-/m1/s1
