16
gdb 2074	4.31465	2.53414	1.76931	2.5308	60.57	-0.2122	-0.0149	0.1973	721.1196	0.139234	-325.798735	-325.792308	-325.791364	-325.829108	24.367	
O	 0.0089117176	-0.0829431548	-0.0425476225	-0.305649
C	-0.0194182366	 1.1259634909	-0.0348013516	 0.382354
C	-1.3160586462	 1.9263707214	-0.0215286562	-0.291666
C	-1.2909107221	 3.0777214727	-1.0470290894	-0.206389
C	 0.0092396351	 3.8861508181	-0.9244892039	-0.155574
N	 1.2194654511	 3.0690765058	-1.0298360499	-0.280632
C	 1.2500261803	 1.9811158051	-0.0442592962	-0.259174
H	-2.1543676699	 1.2429201001	-0.1776371916	 0.119033
H	-1.4182484315	 2.3520806035	 0.9878725774	 0.118371
H	-1.3594259522	 2.6628620682	-2.0613508935	 0.103302
H	-2.1657717035	 3.724846474	-0.9117491654	 0.10126
H	 0.0506649983	 4.6648931248	-1.6931216283	 0.105982
H	 0.0367435874	 4.3983427152	 0.047739652	 0.10506
H	 1.2744917235	 2.6702657679	-1.9629103643	 0.221186
H	 1.3717583154	 2.4281462442	 0.9539901872	 0.118545
H	 2.1115459134	 1.333675303	-0.2246104739	 0.123992
90.7375	185.0268	314.8551	406.8105	417.1392	476.5166	495.7168	662.1389	758.3074	761.744	835.3449	873.3153	912.3588	935.9234	1005.7031	1034.3918	1105.2495	1134.5507	1141.9754	1201.2858	1246.0294	1268.356	1325.9225	1334.174	1342.9835	1375.3574	1382.204	1455.7773	1465.6407	1480.1414	1489.7481	1495.8979	1818.0508	2999.236	3008.9784	3011.8474	3019.7617	3062.4033	3075.2804	3101.6067	3106.5935	3501.7627
O=C1CCCNC1	O=C1CCCNC1	
InChI=1S/C5H9NO/c7-5-2-1-3-6-4-5/h6H,1-4H2	InChI=1S/C5H9NO/c7-5-2-1-3-6-4-5/h6H,1-4H2
