15
gdb 3563	5.16032	3.08239	3.02043	1.8815	58.9	-0.2524	0.0918	0.3442	549.7812	0.127986	-308.467888	-308.463078	-308.462134	-308.496088	20.497	
C	-0.0602645351	 1.5903043976	-0.0404717391	-0.211287
C	 1.4848334193	 1.4254433138	-0.0136315894	-0.072991
C	 1.221175276	 0.1931592597	 0.9251685268	-0.216817
C	-0.0350363915	 0.0367946592	-0.0058875598	-0.072991
C	 0.6800386874	-0.3110993584	-1.3313564513	 0.049273
O	 0.7120369444	 0.7323192743	-2.319167779	-0.254352
C	 1.75956909	 0.6752247611	-1.3368536784	 0.049274
H	-0.4365275104	 2.0073401947	 0.8949945637	 0.094284
H	-0.5109283702	 2.0787484712	-0.9021092478	 0.118753
H	 2.1554335944	 2.2383686905	 0.2624617645	 0.064718
H	 1.959552832	-0.6149952819	 0.9245496224	 0.091643
H	 0.9688615492	 0.4750363156	 1.9508169836	 0.098451
H	-0.9034903345	-0.5564587373	 0.2780455788	 0.064717
H	 0.7527689352	-1.3277632228	-1.7023728182	 0.098662
H	 2.7634779038	 0.5093442727	-1.7126174369	 0.098663
396.9127	397.1827	511.6054	594.5324	673.7506	791.6191	797.7529	844.1152	845.4235	883.9839	889.5953	921.5877	938.7742	983.8298	1005.3912	1024.3062	1058.2706	1083.6232	1086.6538	1109.1866	1116.9278	1223.0547	1226.9581	1243.7431	1261.8616	1274.894	1288.1368	1312.7134	1403.3965	1476.1185	1512.294	3047.4776	3087.9561	3110.3622	3120.3788	3123.4529	3161.6038	3168.6911	3181.0489
C1C2CC1C1OC21	C1[C@H]2C[C@@H]1[C@H]1O[C@@H]21	
InChI=1S/C6H8O/c1-3-2-4(1)6-5(3)7-6/h3-6H,1-2H2	InChI=1S/C6H8O/c1-3-2-4(1)6-5(3)7-6/h3-6H,1-2H2/t3-,4+,5-,6+
