14
gdb 3480	6.09629	2.87836	2.71506	2.0917	59.45	-0.2091	0.0694	0.2784	568.5598	0.113568	-287.315479	-287.309974	-287.30903	-287.344317	21.753	
C	-0.0167379995	 1.5151110476	-0.0168241105	-0.526938
C	 0.0119680703	 0.0247090281	 0.0228806738	 0.342052
C	 0.5325869566	-0.9866897377	-1.0140366025	-0.167236
C	 0.8453699515	-1.9759705898	 0.1344458946	-0.044971
C	 0.3451516452	-1.0051934549	 1.1417875181	-0.114099
N	-0.6000120221	-2.0220977628	 0.5557058455	-0.178348
C	-0.9068901106	-1.0214754596	-0.5585383468	-0.062928
H	 0.9686666163	 1.9433401958	 0.2009674462	 0.124653
H	-0.3187541274	 1.8681677908	-1.008999457	 0.125322
H	-0.7283622234	 1.9226132871	 0.7109418563	 0.12652
H	 0.9684395051	-0.8035562279	-1.9860749186	 0.09309
H	 1.5013196852	-2.8338670602	 0.2234299611	 0.094642
H	 0.510512737	-0.9191603229	 2.2098874713	 0.091831
H	-1.8474411042	-0.9593821136	-1.0925519215	 0.096409
215.8065	248.8216	275.4092	594.6041	648.9947	756.0222	761.1039	777.5519	839.1474	862.1692	870.0889	883.5325	896.7879	958.2689	979.4707	1001.5143	1011.7079	1064.8068	1102.9463	1132.629	1159.4317	1195.6886	1239.9381	1284.5446	1316.0958	1409.145	1443.4332	1480.8841	1499.2477	3019.5484	3078.5078	3091.5441	3168.7981	3181.7489	3184.4115	3216.4547
CC12C3C4C1N4C23	C[C@@]12[C@H]3[C@H]4[C@@H]1N4[C@@H]23	
InChI=1S/C6H7N/c1-6-2-3-5(6)7(3)4(2)6/h2-5H,1H3	InChI=1S/C6H7N/c1-6-2-3-5(6)7(3)4(2)6/h2-5H,1H3/t2-,3-,4+,5-,6-,7?/m0/s1
