14
gdb 964	3.59036	3.37098	1.76228	1.5904	60.29	-0.1862	0.0313	0.2175	694.6533	0.114142	-324.604397	-324.597486	-324.596542	-324.635134	25.193	
C	 0.0836365241	 1.4857022404	-0.0550336028	-0.497997
C	-0.0670867397	 0.0077152928	-0.0574917529	 0.309396
C	-1.1307412933	-0.832353666	 0.1180405566	 0.12524
N	-2.4627650565	-0.5027619596	 0.4264577485	-0.607952
C	-0.6122797342	-2.1698040297	 0.0185948033	-0.228679
C	 0.7192498345	-2.0401227246	-0.2060916471	-0.014638
O	 1.0747402182	-0.7349537178	-0.2495923281	-0.183592
H	 0.5599152091	 1.8612305538	 0.8598795218	 0.135113
H	 0.6902359967	 1.8231235238	-0.9027228777	 0.136382
H	-0.8955672653	 1.9682313301	-0.1349070541	 0.118619
H	-2.6751874429	 0.4699650858	 0.2430401759	 0.237264
H	-3.1260165182	-1.0794554654	-0.0767859794	 0.24224
H	-1.1682536955	-3.0899952919	 0.1123418818	 0.101263
H	 1.5158749231	-2.7510023815	-0.3523762857	 0.127341
96.501	178.9601	225.9159	263.0952	313.3146	421.4994	607.3955	634.437	660.5919	722.2449	736.3615	781.6066	808.2533	905.3923	956.7833	1055.3258	1058.9424	1079.7969	1188.2305	1226.197	1267.4622	1317.2947	1414.728	1467.5023	1473.4074	1494.1519	1552.0608	1648.2544	1692.7067	3016.1844	3068.6226	3101.7901	3248.4314	3280.4304	3525.0842	3613.531
CC1=C(N)C=CO1	Cc1c(N)cco1	
InChI=1S/C5H7NO/c1-4-5(6)2-3-7-4/h2-3H,6H2,1H3	InChI=1S/C5H7NO/c1-4-5(6)2-3-7-4/h2-3H,6H2,1H3
