12
gdb 587	15.66421	1.58647	1.56432	2.024	55.68	-0.2473	0.0288	0.276	776.9091	0.094802	-269.180682	-269.17392	-269.172976	-269.212626	22.011	
C	-0.0255211067	 1.4678005007	-0.0185464158	-0.499618
C	 0.0280466577	 0.0152183635	 0.0386626964	 0.086575
C	 0.0632228391	-1.1876683524	 0.0876690336	 0.0874
C	 0.1375273673	-2.6224135967	 0.1262749707	-0.109957
C	-0.5859744005	-3.4160395772	 1.1397546514	-0.160393
O	-1.0517493517	-3.3635997053	-0.201767604	-0.216606
H	 0.821100979	 1.8736667036	-0.5827869429	 0.152372
H	-0.9444654917	 1.8067111946	-0.5092270658	 0.155951
H	-0.0014505871	 1.9089082107	 0.9839751431	 0.150958
H	 1.0460469192	-3.0554109535	-0.2917199646	 0.113998
H	-0.1719179964	-4.3711719717	 1.4613565499	 0.117091
H	-1.2008853283	-2.8963360064	 1.8721023679	 0.122227
17.0294	127.3535	138.7835	313.422	328.2976	497.4212	525.8394	710.9167	831.7227	902.3877	994.8405	1050.0541	1054.1684	1085.6879	1149.3644	1160.4793	1189.4364	1284.839	1408.9653	1414.2688	1475.6243	1477.335	1519.7118	2372.3864	3029.0577	3083.3927	3090.302	3092.5631	3110.9683	3176.7308
CC#CC1CO1	CC#C[C@H]1CO1	
InChI=1S/C5H6O/c1-2-3-5-4-6-5/h5H,4H2,1H3	InChI=1S/C5H6O/c1-2-3-5-4-6-5/h5H,4H2,1H3/t5-/m0/s1
