14
gdb 1993	6.82639	1.6499	1.46856	2.3559	54.31	-0.265	0.0562	0.3212	828.8	0.113187	-361.740252	-361.733043	-361.732099	-361.772159	25.817	
N	-0.1989578275	 1.2662048251	 0.0786940699	-0.563933
C	 0.0061467795	-0.0847970923	 0.1217542142	 0.491775
O	 1.0074476981	-0.6300290492	 0.5176422485	-0.393393
O	-1.1058009122	-0.7264611058	-0.3332012697	-0.264404
C	-1.0630008944	-2.137060518	-0.2492462843	 0.166464
C	-1.8147586547	-2.7991660281	 0.8648503801	-0.278649
C	-2.349766158	-2.8279420753	-0.5555469786	-0.300705
H	 0.6216046179	 1.8399088206	 0.1706271545	 0.268416
H	-0.9627571352	 1.6213012623	-0.4711270104	 0.263917
H	-0.1194831051	-2.5559900193	-0.5758120373	 0.120731
H	-1.4021353182	-3.7049715161	 1.2941619656	 0.121998
H	-2.3214281157	-2.1489239566	 1.5686365922	 0.123838
H	-3.2040681499	-2.1975306675	-0.7741825697	 0.124193
H	-2.3140959045	-3.7552737099	-1.1157524049	 0.119753
44.6988	102.7796	190.7877	356.8276	358.9754	408.9352	464.7645	517.5747	652.4885	753.3093	781.2991	815.2398	838.3812	916.5257	985.3405	1042.7544	1065.7267	1074.6981	1110.3738	1119.563	1190.4083	1192.3427	1242.6315	1343.6921	1408.9322	1456.1139	1500.5633	1611.74	1841.8285	3140.5327	3143.5959	3192.1769	3223.6247	3237.9274	3613.5654	3742.6694
NC(=O)OC1CC1	NC(=O)OC1CC1	
InChI=1S/C4H7NO2/c5-4(6)7-3-1-2-3/h3H,1-2H2,(H2,5,6)	InChI=1S/C4H7NO2/c5-4(6)7-3-1-2-3/h3H,1-2H2,(H2,5,6)
