19
gdb 1723	4.04523	2.04516	1.81928	1.3946	66.88	-0.2513	0.0706	0.3219	812.158	0.170915	-310.915445	-310.907544	-310.9066	-310.946988	30.006	
C	 0.1297831763	 1.4283011095	-0.2539726054	-0.409717
C	-0.0921950123	-0.0749148033	-0.0550559994	-0.212112
C	-1.5583965798	-0.4720262257	 0.1575733858	 0.432479
O	-2.1069602897	 0.1536562744	 1.3041614068	-0.484514
C	-2.4250060434	-0.4238404116	-1.1443585728	-0.276286
C	-2.2379977418	-1.9590480741	-1.2838814341	-0.211788
C	-1.772579163	-2.0053360058	 0.1965467389	-0.254614
H	 1.1839046854	 1.6456418953	-0.4490898037	 0.120027
H	-0.4489269515	 1.8160396628	-1.0996131835	 0.11977
H	-0.1507012616	 1.9987430175	 0.6388738405	 0.111511
H	 0.2975622792	-0.6196150328	-0.9238994251	 0.09545
H	 0.4802867695	-0.418826525	 0.8152186561	 0.101496
H	-2.0465281407	 1.1075209472	 1.1862906582	 0.273996
H	-3.4560579899	-0.1588107914	-0.8969913183	 0.102745
H	-2.0801422692	 0.2084334731	-1.9672295515	 0.088449
H	-3.1225057308	-2.5438119565	-1.5432948789	 0.099619
H	-1.438522865	-2.219720198	-1.982322233	 0.101532
H	-0.9053487922	-2.6230725271	 0.4451792723	 0.09172
H	-2.5910992795	-2.2477069484	 0.8782764773	 0.110235
111.8629	142.4417	202.571	246.8104	277.0097	334.0909	365.4044	430.9091	480.1609	633.2239	707.307	781.5866	791.5126	847.2119	898.3975	935.8127	968.3435	974.5993	1010.9367	1032.0988	1038.887	1108.3649	1179.8678	1196.0052	1203.2055	1247.0823	1265.4889	1272.2252	1288.9389	1318.3767	1338.6447	1389.906	1410.2238	1466.6779	1477.0954	1484.5928	1500.0391	1505.4027	1512.2081	3024.9135	3029.9901	3052.9326	3058.568	3060.6388	3067.3648	3094.1752	3102.6672	3105.7065	3114.3949	3127.3107	3808.7813
CCC1(O)CCC1	CCC1(O)CCC1	
InChI=1S/C6H12O/c1-2-6(7)4-3-5-6/h7H,2-5H2,1H3	InChI=1S/C6H12O/c1-2-6(7)4-3-5-6/h7H,2-5H2,1H3
