13
gdb 2842	5.19913	1.72171	1.44658	4.2226	54.85	-0.2722	0.008	0.2802	809.1143	0.102319	-340.61	-340.602997	-340.602053	-340.641454	24.534	
O	 0.0264446705	 1.3655909919	-0.3455348073	-0.414869
C	 0.0368633371	 0.1021981352	 0.2917132381	-0.078123
C	-1.3364643654	-0.5289841977	 0.24657177	-0.02348
N	-1.7287589162	-1.0532775272	-1.0651949594	-0.320414
C	-1.5500092292	-1.998479099	 0.0564520239	-0.19537
C	-0.4509123438	-2.9300628117	-0.043986471	 0.330079
N	 0.4194742913	-3.689153528	-0.0952401361	-0.329992
H	-0.1870613022	 1.2050156203	-1.2718963069	 0.293821
H	 0.7702665909	-0.5795109036	-0.160215073	 0.118951
H	 0.3351521302	 0.2782227263	 1.3299861431	 0.12132
H	-2.098922939	-0.0190020875	 0.8323354472	 0.110341
H	-2.7216291928	-0.920835542	-1.2382024972	 0.250476
H	-2.4371898215	-2.4275423171	 0.5142944885	 0.13726
75.4184	120.5885	201.4125	270.6173	357.3937	418.0749	472.7953	577.8154	624.3121	803.3691	829.8352	902.9285	946.0034	992.1515	1009.3931	1076.281	1118.1553	1175.1008	1214.5052	1245.0315	1270.6299	1368.2015	1394.7499	1426.5211	1461.4463	1495.6679	2360.7857	3018.2405	3087.556	3133.8353	3151.0554	3513.31	3799.8006
OCC1NC1C#N	OC[C@H]1N[C@H]1C#N	
InChI=1S/C4H6N2O/c5-1-3-4(2-7)6-3/h3-4,6-7H,2H2	InChI=1S/C4H6N2O/c5-1-3-4(2-7)6-3/h3-4,6-7H,2H2/t3-,4+/m0/s1
