13
gdb 2762	4.58441	2.3172	1.74353	4.6699	54.37	-0.2601	0.0091	0.2692	701.7786	0.102626	-340.612805	-340.606107	-340.605162	-340.643702	23.888	
O	 0.1705662654	 1.3866536207	-0.1639107913	-0.411924
C	 0.0856824012	 0.0039260282	-0.0106766016	 0.152191
C	 0.1776925185	-0.5441983287	 1.4395123016	-0.208129
N	-1.2999683001	-0.6509521688	 1.4650429046	-0.307183
C	-1.3674502958	-0.6106989059	-0.0109908976	-0.189469
C	-2.4453062398	 0.2071306793	-0.5618478372	 0.305914
N	-3.2864526103	 0.8696980846	-0.9966093802	-0.320099
H	-0.4517133515	 1.8075897264	 0.4416717308	 0.300299
H	 0.7663922477	-0.4317374704	-0.7420466189	 0.11095
H	 0.713730352	-1.5017098483	 1.4913924233	 0.103493
H	 0.5952741525	 0.141610578	 2.1833548722	 0.117901
H	-1.6964866853	-1.4752370696	 1.9014719014	 0.233181
H	-1.3780910646	-1.5929591755	-0.5039840472	 0.112875
78.7692	143.2857	223.2867	359.	379.7478	414.8017	557.9157	563.9291	691.7262	787.3922	845.8305	941.982	982.4666	1002.7462	1037.2289	1082.3157	1133.2935	1147.061	1195.2588	1246.2035	1293.2199	1330.0164	1359.0896	1387.3182	1443.3239	1514.0383	2357.366	3004.0919	3009.7986	3078.0184	3121.1226	3543.8655	3791.8831
OC1CNC1C#N	O[C@H]1CN[C@H]1C#N	
InChI=1S/C4H6N2O/c5-1-3-4(7)2-6-3/h3-4,6-7H,2H2	InChI=1S/C4H6N2O/c5-1-3-4(7)2-6-3/h3-4,6-7H,2H2/t3-,4-/m0/s1
