14
gdb 2424	4.52509	3.36889	2.51927	1.046	57.02	-0.2359	0.0623	0.2982	578.7199	0.113308	-324.462733	-324.457057	-324.456113	-324.491824	22.346	
C	 0.020931066	 1.4506024689	-0.0721396511	-0.529896
C	 0.009722753	-0.0398651982	-0.0178167247	 0.492738
O	 0.5554399506	-0.8219318353	-1.1284356519	-0.355186
C	 0.1105127693	-1.8386170638	-0.1883345206	 0.07475
C	 0.5198820148	-1.0286510659	 1.0829828478	-0.116671
N	-0.8291209028	-1.0776260875	 1.7362340949	-0.349522
C	-1.1538510846	-1.0456032623	 0.2725082774	-0.116662
H	 1.0450482762	 1.825920851	-0.1586376486	 0.135148
H	-0.5539017397	 1.8099005853	-0.9309944742	 0.13513
H	-0.4254007954	 1.8490935529	 0.8435724199	 0.146147
H	 0.2449906316	-2.890488192	-0.4440453003	 0.093523
H	 1.4640358984	-1.0203827687	 1.6290481259	 0.089075
H	-1.0027818875	-2.0121782719	 2.1144253228	 0.212351
H	-2.1677027299	-1.0571523426	-0.1295534574	 0.089074
208.5262	244.1514	290.1858	500.2834	533.8087	650.0636	741.4512	770.6782	774.4555	824.3654	842.5998	894.6173	931.0193	954.9582	999.9315	1068.8799	1095.1632	1102.6292	1149.1015	1151.4129	1165.924	1208.9305	1254.7652	1285.1321	1291.4114	1380.488	1424.3763	1475.6731	1490.4291	3041.8438	3105.4197	3112.0896	3113.9935	3123.6877	3124.9757	3409.042
CC12OC3C1NC23	C[C@@]12O[C@H]3[C@@H]1N[C@@H]23	
InChI=1S/C5H7NO/c1-5-3-2(7-5)4(5)6-3/h2-4,6H,1H3	InChI=1S/C5H7NO/c1-5-3-2(7-5)4(5)6-3/h2-4,6H,1H3/t2-,3-,4+,5+
