17
gdb 2699	14.94312	0.85616	0.82644	1.4662	67.59	-0.2551	0.0568	0.3119	1353.7607	0.145784	-309.675176	-309.666397	-309.665453	-309.708791	29.958	
C	-0.0245457889	 1.3934149985	 0.0250756058	-0.229037
O	-0.000920708	-0.0129438125	 0.0095420548	-0.230813
C	 0.6448569666	-0.5403574081	-1.1263473849	-0.050366
C	 0.6114178416	-2.0601439907	-1.0378767044	-0.189279
C	 1.299452472	-2.7236417304	-2.2462763678	-0.355559
C	 1.2789204634	-4.1797877752	-2.1816648146	 0.291877
C	 1.2503969551	-5.3790511534	-2.1082699172	-0.433048
H	 0.9912398017	 1.820526652	 0.0307061193	 0.10278
H	-0.5620720589	 1.8041089776	-0.8447945083	 0.102778
H	-0.5416601542	 1.7024062266	 0.9367357039	 0.127742
H	 0.1433695626	-0.1969750319	-2.0492669808	 0.083116
H	 1.6883026381	-0.1802716303	-1.1786797775	 0.083116
H	 1.102704612	-2.3769947032	-0.1125676516	 0.121014
H	-0.4292306716	-2.3935201385	-0.9757040888	 0.121015
H	 0.8123090441	-2.3951414476	-3.1742762776	 0.130476
H	 2.3400229846	-2.3785656499	-2.3135216924	 0.130466
H	 1.2300322499	-6.438926583	-2.0531246778	 0.193724
61.4815	101.8274	102.5251	128.5229	217.7719	237.8793	347.3066	364.8981	410.7084	551.3659	615.4308	634.8118	756.0034	869.3162	938.4423	1001.4017	1044.4668	1073.2631	1118.3668	1166.9322	1180.5198	1224.0459	1225.4937	1281.3342	1300.2968	1310.57	1371.3507	1429.0243	1475.1266	1482.9121	1486.0504	1497.1026	1506.1555	1532.0195	2240.7944	2934.3802	2958.6648	2968.0161	3009.7931	3012.3647	3040.0826	3056.9517	3102.9543	3114.0102	3509.2458
COCCCC#C	COCCCC#C	
InChI=1S/C6H10O/c1-3-4-5-6-7-2/h1H,4-6H2,2H3	InChI=1S/C6H10O/c1-3-4-5-6-7-2/h1H,4-6H2,2H3
