14
gdb 4869	5.01092	1.37361	1.16375	2.7626	61.94	-0.2043	0.0085	0.2128	997.3175	0.108167	-415.880357	-415.872709	-415.871765	-415.912896	27.38	
N	 0.1417631066	 1.3244938516	 0.0451983076	-0.597207
C	-0.0386831832	-0.0456817958	 0.0176021626	 0.34334
C	-1.1109924463	-0.8838126499	 0.0669674523	-0.19474
N	-0.644997257	-2.1929721425	 0.1177338866	-0.290325
C	 0.6432768192	-2.09954659	 0.0932672099	 0.339905
C	 1.6546769196	-3.19113815	 0.0353942758	-0.166015
O	 2.1356398503	-3.4343873215	-1.2834122503	-0.412407
O	 1.0900497049	-0.7991720933	 0.0334093183	-0.191513
H	 0.9487802568	 1.6313021546	-0.4830226184	 0.2629
H	-0.6857561542	 1.8367635985	-0.226064088	 0.26145
H	-2.1613891062	-0.6439645035	 0.0756045112	 0.110074
H	 2.5354341412	-2.9232556413	 0.6255684252	 0.127374
H	 1.1980854501	-4.0859237064	 0.4769513219	 0.120308
H	 1.3747200382	-3.6849326105	-1.8187852245	 0.286855
50.3224	126.2184	194.6623	254.9016	287.7118	366.5538	429.0495	445.2446	633.9576	665.0223	710.4669	734.7986	780.0967	790.6558	934.4746	978.414	1023.83	1045.0308	1097.772	1135.7332	1207.9634	1273.3892	1290.9358	1370.3886	1415.51	1437.7952	1483.9915	1610.9885	1626.4107	1671.3789	3030.9326	3099.8571	3269.8631	3548.5363	3650.1714	3806.8582
NC1=CN=C(CO)O1	Nc1cnc(CO)o1	
InChI=1S/C4H6N2O2/c5-3-1-6-4(2-7)8-3/h1,7H,2,5H2	InChI=1S/C4H6N2O2/c5-3-1-6-4(2-7)8-3/h1,7H,2,5H2
