13
gdb 1452	4.77663	2.05398	1.44944	2.7669	54.27	-0.2591	-0.0098	0.2493	794.657	0.101327	-377.797879	-377.79033	-377.789386	-377.830464	25.276	
C	-0.0143514438	 1.4567313931	-0.0089688982	-0.224432
O	-0.0078022759	 0.0268067058	-0.0587053527	-0.200563
C	 0.6293502606	-0.5138177905	-1.0935957788	 0.516412
N	 1.2027350353	 0.1782982129	-1.9928441651	-0.579608
N	 0.5818467489	-1.919438702	-1.0558957228	-0.37731
C	-0.0034121049	-2.7841544992	-0.1420357436	 0.162214
O	-0.6175293906	-2.4998046782	 0.8497717315	-0.268549
H	 1.0057009134	 1.845028704	 0.0445256987	 0.141831
H	-0.5010264363	 1.870805363	-0.8954528456	 0.141801
H	-0.5726081137	 1.708147731	 0.8927203547	 0.137801
H	 1.6397030209	-0.3965642215	-2.7080549373	 0.214819
H	 1.0547895119	-2.3670050491	-1.825867771	 0.254815
H	 0.1795754943	-3.8302308393	-0.4640524499	 0.080769
34.7428	141.7358	175.6493	181.1556	253.4738	318.4961	419.5394	567.51	587.0055	737.2591	783.1442	853.5174	872.058	1027.5476	1034.2641	1116.4907	1173.4829	1181.8031	1222.131	1379.5819	1456.4986	1478.8016	1481.7668	1486.4297	1499.8573	1741.052	1849.8462	2920.0142	3053.1006	3128.6586	3161.686	3528.6909	3630.4425
COC(=N)NC=O	COC(=N)NC=O	
InChI=1S/C3H6N2O2/c1-7-3(4)5-2-6/h2H,1H3,(H2,4,5,6)	InChI=1S/C3H6N2O2/c1-7-3(4)5-2-6/h2H,1H3,(H2,4,5,6)
