13
gdb 1590	3.61348	2.32895	1.60109	2.9118	55.81	-0.2622	-0.0365	0.2257	762.1666	0.098122	-344.43314	-344.425204	-344.42426	-344.465792	27.568	
C	-0.08274581	 1.4287802646	-0.0163761343	-0.483255
C	 0.0422027809	-0.0701159542	 0.0443284062	 0.371027
O	 0.1908444892	-0.6933125139	 1.0696549965	-0.305804
C	-0.0048535916	-0.8667835328	-1.2884052436	-0.109394
O	 0.2481729985	-2.2211723395	-1.039470392	-0.413155
C	-1.2980791958	-0.6446735087	-1.9468886071	 0.326572
C	-2.3614888433	-0.4592693253	-2.4752632027	-0.478006
H	 0.7359948749	 1.8449446234	-0.614496659	 0.150439
H	-1.0157569035	 1.7065896941	-0.5149510153	 0.167143
H	-0.0513437187	 1.8464201779	 0.9901535622	 0.152035
H	 0.7891597316	-0.4570219356	-1.9350308936	 0.119076
H	 0.2432978659	-2.29858903	-0.0697562034	 0.296502
H	-3.2987806282	-0.30849978	-2.9519796638	 0.20682
42.4404	102.1833	145.4248	231.6209	296.2177	400.1557	401.3808	446.9917	555.2387	573.1353	628.1875	648.2344	676.9744	793.1534	961.2067	973.9276	1042.3414	1124.0771	1198.0573	1249.8667	1337.2692	1386.5718	1432.4398	1464.1306	1470.4543	1814.5197	2231.137	2968.3465	3045.8098	3112.7275	3160.6313	3501.4046	3654.2017
CC(=O)C(O)C#C	CC(=O)[C@@H](O)C#C	
InChI=1S/C5H6O2/c1-3-5(7)4(2)6/h1,5,7H,2H3	InChI=1S/C5H6O2/c1-3-5(7)4(2)6/h1,5,7H,2H3/t5-/m0/s1
