11
gdb 3889	3.87306	3.53018	1.85767	4.6754	48.83	-0.2357	-0.0177	0.218	621.5313	0.080176	-372.711859	-372.705791	-372.704847	-372.741471	22.548	
N	 0.0156056324	 1.3888826319	 0.127326342	-0.598343
C	 0.0304832622	 0.0069658789	 0.0253535708	 0.315898
N	-1.021996286	-0.7620002887	 0.0411784749	-0.160702
O	-0.5384152478	-2.0514833274	-0.0060050044	-0.172583
N	 0.8387262231	-2.0675844949	-0.0528356171	-0.160764
C	 1.2037913665	-0.8162882373	-0.0363644451	 0.316015
N	 2.5083459192	-0.3601390887	-0.1376688046	-0.598331
H	 0.6403626484	 1.8384022548	-0.5310675083	 0.261842
H	-0.9184726673	 1.7722982688	 0.0568073924	 0.267556
H	 3.1867614709	-1.1078925159	-0.066406058	 0.267564
H	 2.7179689984	 0.3807785185	 0.5203192573	 0.261847
217.6745	232.6335	276.5075	379.3043	395.0999	480.3606	588.3326	656.2288	706.4638	757.4179	777.8216	810.7187	907.6856	941.6499	1018.5429	1159.1489	1166.7406	1343.0697	1497.9863	1595.2517	1618.031	1649.6513	1686.3155	3533.5439	3534.711	3630.6662	3631.7189
NC1=NON=C1N	Nc1nonc1N	
InChI=1S/C2H4N4O/c3-1-2(4)6-7-5-1/h(H2,3,5)(H2,4,6)	InChI=1S/C2H4N4O/c3-1-2(4)6-7-5-1/h(H2,3,5)(H2,4,6)
