12
gdb 4694	6.34086	1.42341	1.16385	3.3544	70.94	-0.2023	-0.0233	0.179	949.423	0.084005	-377.516234	-377.509194	-377.50825	-377.547289	26.186	
N	 0.1689404128	 1.3387065224	 0.1745752284	-0.605012
C	-0.0386454872	-0.0171645602	 0.0472262412	 0.355145
C	-1.1393110093	-0.8251184695	-0.0153772449	-0.195306
N	-0.7215205619	-2.1407189444	-0.0447206133	-0.296588
C	 0.5749289441	-2.093018287	-0.0038832082	 0.206654
O	 1.0642812461	-0.7986214576	 0.0562248744	-0.194982
C	 1.5118573089	-3.140771686	-0.0182687739	 0.263955
C	 2.3189180141	-4.0339625858	-0.0297625298	-0.378643
H	 1.0394441283	 1.6574886165	-0.2296020698	 0.266416
H	-0.6136379624	 1.8991692731	-0.1305593751	 0.265277
H	-2.1811656554	-0.5509547471	-0.0398081391	 0.114885
H	 3.0246166818	-4.8274097345	-0.0401829399	 0.198197
144.3916	150.4719	216.5016	299.3555	370.6972	456.8785	554.7423	555.4932	588.299	625.0831	697.1431	701.927	724.332	742.6647	786.3148	963.3223	1026.584	1090.5913	1134.551	1249.2087	1295.6643	1429.6112	1566.2199	1612.6127	1664.1377	2235.4683	3269.4568	3502.6931	3558.3904	3661.2323
NC1=CN=C(O1)C#C	Nc1cnc(o1)C#C	
InChI=1S/C5H4N2O/c1-2-5-7-3-4(6)8-5/h1,3H,6H2	InChI=1S/C5H4N2O/c1-2-5-7-3-4(6)8-5/h1,3H,6H2
