10
gdb 764	9.66876	3.80816	2.74184	3.6291	43.39	-0.2268	0.0283	0.255	445.3236	0.076735	-297.554699	-297.549748	-297.548803	-297.582689	17.921	
N	 0.0191839129	 1.3688025048	 0.1587142355	-0.59364
C	-0.0296522992	-0.0065935241	 0.0418354259	 0.424174
N	-1.1237742506	-0.7468995835	 0.0410434632	-0.322936
C	-0.6222471845	-2.0162424765	-0.0137292605	 0.038322
N	 0.6898898698	-2.1163151047	-0.0551193781	-0.222558
N	 1.0642183678	-0.798643909	-0.016506429	-0.246088
H	 0.7187161503	 1.8239558807	-0.4115604224	 0.255679
H	-0.8949801071	 1.777207408	 0.0187939022	 0.270571
H	-1.2551503103	-2.8911518316	-0.0298826596	 0.12262
H	 2.0392170808	-0.555412274	 0.0224123929	 0.273856
263.8116	300.8671	393.5814	461.2853	654.817	684.7438	731.3272	774.2651	910.3499	977.9134	1049.4111	1084.6978	1113.847	1230.2403	1299.4293	1334.5611	1450.9759	1555.9785	1606.253	1659.7487	3257.7048	3556.9762	3655.0863	3675.0064
NC1=NC=NN1	Nc1ncn[nH]1	
InChI=1S/C2H4N4/c3-2-4-1-5-6-2/h1H,(H3,3,4,5,6)	InChI=1S/C2H4N4/c3-2-4-1-5-6-2/h1H,(H3,3,4,5,6)
