17
gdb 1748	5.15211	1.50126	1.3437	1.6712	60.11	-0.26	0.0772	0.3372	928.774	0.146606	-346.83159	-346.823432	-346.822488	-346.864163	29.114	
C	 0.0648667941	 1.577339261	-0.3316958018	-0.460582
C	-0.0893868825	 0.0857899774	-0.1195661344	 0.421041
C	-1.4339012337	-0.4071700452	 0.3854790671	-0.272322
C	-1.7796844567	 0.0921154768	 1.7941018585	-0.061776
O	-3.0262408992	-0.4089568842	 2.25039147	-0.418427
C	 0.7758559315	-0.8375771332	-0.8697716136	-0.228503
O	 1.0422149584	-0.5493323146	 0.5046431139	-0.277368
H	 1.0636822751	 1.8089011708	-0.7091776832	 0.127191
H	-0.6745329642	 1.945738902	-1.0510238132	 0.122649
H	-0.0757845562	 2.1268676393	 0.6043271115	 0.131647
H	-2.2284662046	-0.1016371744	-0.3059834792	 0.107357
H	-1.4198447506	-1.5039918988	 0.3982562943	 0.090928
H	-0.9615850648	-0.1637023503	 2.4835668101	 0.106656
H	-1.8851794781	 1.1815241084	 1.8021692742	 0.112119
H	-2.9399226315	-1.3622979966	 2.351108975	 0.281514
H	 0.4354800729	-1.85132403	-1.0793029209	 0.108158
H	 1.5017127502	-0.4407056984	-1.5790673883	 0.109719
73.1125	98.0991	175.926	195.9261	300.5304	336.4097	360.1418	368.9708	437.1834	497.6805	737.8219	778.8519	845.6406	910.6697	933.9823	984.1933	1033.1979	1072.3994	1076.026	1117.7385	1135.1747	1148.8676	1180.5883	1272.7159	1307.9143	1320.6168	1393.0273	1406.2282	1424.697	1425.7411	1471.1928	1488.4671	1499.8234	1514.8527	1531.0497	2999.6489	3025.5649	3039.4218	3064.3632	3075.5249	3088.5835	3103.9002	3124.5832	3159.9429	3815.389
CC1(CCO)CO1	C[C@@]1(CCO)CO1	
InChI=1S/C5H10O2/c1-5(2-3-6)4-7-5/h6H,2-4H2,1H3	InChI=1S/C5H10O2/c1-5(2-3-6)4-7-5/h6H,2-4H2,1H3/t5-/m1/s1
