14
gdb 3683	7.11031	2.09045	1.6486	2.6378	59.28	-0.245	0.0178	0.2627	752.112	0.114656	-320.804155	-320.797088	-320.796143	-320.836094	24.286	
C	 0.0078679885	 1.4840205776	 0.0378779612	-0.502872
C	 0.0123555765	-0.0050284594	-0.0466991999	 0.352393
N	 0.0095309713	-0.7314730284	-1.1500610846	-0.338077
C	 0.0166650954	-2.021127612	-0.6896865091	 0.337713
C	 0.0165323552	-3.2074095028	-1.5936148104	-0.481072
N	 0.0237747886	-2.1306038749	 0.6298398613	-0.262079
N	 0.0208450471	-0.8300386017	 1.0234745197	-0.234331
H	 0.8981065028	 1.8619303001	 0.5520657338	 0.140281
H	-0.0073318353	 1.8919198382	-0.9731618081	 0.163302
H	-0.8705770785	 1.8553918493	 0.5764414362	 0.139916
H	 0.8941214767	-3.1962331113	-2.2477012483	 0.137099
H	 0.0229384241	-4.1275102332	-1.0069238298	 0.137483
H	-0.8677001854	-3.2028126177	-2.2387698556	 0.1371
H	 0.0246762733	-0.6062267937	 2.0047440737	 0.273144
31.2943	109.3623	197.705	268.2069	335.7969	413.0642	524.0887	623.7383	697.1005	724.1413	757.6939	984.9318	1008.0734	1024.4106	1065.0561	1070.6356	1078.8966	1163.5949	1284.807	1375.9322	1406.5028	1415.816	1438.9947	1478.3964	1481.076	1485.2404	1501.3904	1544.4556	1594.3457	3040.4078	3046.0055	3093.6615	3101.3814	3143.7197	3153.3938	3664.9684
CC1=NC(C)=NN1	Cc1nc(C)n[nH]1	
InChI=1S/C4H7N3/c1-3-5-4(2)7-6-3/h1-2H3,(H,5,6,7)	InChI=1S/C4H7N3/c1-3-5-4(2)7-6-3/h1-2H3,(H,5,6,7)
