18
gdb 2577	2.91128	2.65812	1.76506	2.2564	63.32	-0.246	0.0656	0.3116	793.4395	0.160118	-326.950279	-326.942327	-326.941383	-326.982336	29.25	
C	 0.0807210463	 0.620493106	 0.9330702955	-0.378657
C	 0.3159853491	-0.7332494471	 0.2479149302	-0.266151
C	 0.6715073516	-0.6391786186	-1.2271809059	 0.324424
C	 1.9719302323	 0.0684354328	-1.5869138009	-0.110807
O	 1.830183419	 1.4776560585	-1.5485367968	-0.417121
C	 0.1472540592	-1.6710146964	-2.1578030853	-0.289185
N	-0.3958992463	-0.298327493	-2.1962568941	-0.359206
H	 0.9546457582	 1.2689240331	 0.8462123252	 0.14626
H	-0.7623425316	 1.1514076697	 0.477320009	 0.109067
H	-0.1495606288	 0.4786901738	 1.9935017669	 0.107865
H	 1.1209770868	-1.2708384901	 0.7662433494	 0.103276
H	-0.580963538	-1.3577142843	 0.3539062625	 0.087774
H	 2.7603067732	-0.1877351651	-0.8710570807	 0.104413
H	 2.3037238352	-0.2637747221	-2.5822215258	 0.088162
H	 1.0535421994	 1.6656234653	-2.0913400455	 0.290287
H	 0.7195511713	-1.9602931673	-3.0351975289	 0.117889
H	-0.476181858	-2.4609802757	-1.7468334306	 0.111154
H	-1.2970477587	-0.2738018094	-1.7245563741	 0.230557
76.5865	111.3472	203.9378	227.4684	278.0472	345.4786	370.0872	441.7408	491.4802	551.2664	720.0406	791.0859	865.2987	899.2173	916.6551	972.6965	989.013	1003.2919	1052.4184	1070.5246	1103.5729	1116.8304	1150.4492	1206.0987	1266.5979	1277.2691	1329.9541	1363.3573	1373.964	1412.2592	1418.2487	1438.7451	1479.0591	1496.3714	1500.4955	1508.5887	1515.1673	2986.8475	3011.4895	3037.6537	3045.926	3072.0264	3099.5338	3105.5933	3136.9394	3189.4356	3492.0907	3771.2991
CCC1(CO)CN1	CC[C@@]1(CO)CN1	
InChI=1S/C5H11NO/c1-2-5(4-7)3-6-5/h6-7H,2-4H2,1H3	InChI=1S/C5H11NO/c1-2-5(4-7)3-6-5/h6-7H,2-4H2,1H3/t5-/m0/s1
