16
gdb 2534	3.28303	2.10888	1.3627	3.3389	61.7	-0.2858	0.0187	0.3045	893.1407	0.135096	-325.784144	-325.77574	-325.774796	-325.816962	28.68	
C	-0.1018049923	 1.5548035771	 0.1173568003	-0.394094
C	 0.0316598262	 0.0331072003	 0.0392817937	-0.188369
C	 0.716647711	-0.4223707616	-1.2560488168	-0.007815
O	 2.0285949856	 0.0886949178	-1.2696659273	-0.228935
C	 2.7060780694	-0.0742514619	-2.503436212	-0.248989
C	 0.7184156457	-1.901854898	-1.3600501048	 0.269356
N	 0.7281995408	-3.0542529062	-1.4457351325	-0.324692
H	 0.8784006692	 2.033398272	 0.0614360015	 0.140838
H	-0.7167642086	 1.9415491115	-0.7029009108	 0.116262
H	-0.5762893413	 1.8495889766	 1.0573215087	 0.121728
H	 0.6190069242	-0.3470023203	 0.8815284559	 0.128736
H	-0.9515464726	-0.4463272419	 0.0907220293	 0.120116
H	 0.1497692691	-0.040827388	-2.1229962513	 0.108703
H	 3.6875188524	 0.388758866	-2.3860592569	 0.138856
H	 2.8361288138	-1.1345838209	-2.7577888685	 0.135667
H	 2.1682719375	 0.4236160074	-3.3238874186	 0.112633
101.0752	103.9998	150.2409	178.4088	205.2196	252.0385	297.8638	344.247	463.415	545.9256	598.3181	765.7127	868.8276	946.7031	964.7158	1051.0197	1108.6499	1136.4459	1159.3597	1184.5952	1226.9645	1292.0711	1318.4014	1368.0972	1383.8792	1410.5932	1476.7743	1481.3945	1487.9352	1495.9247	1508.0892	1508.932	2352.0566	2958.9714	2991.6224	3040.9967	3051.567	3052.4781	3090.2336	3110.7565	3131.9236	3133.7323
CCC(OC)C#N	CC[C@@H](OC)C#N	
InChI=1S/C5H9NO/c1-3-5(4-6)7-2/h5H,3H2,1-2H3	InChI=1S/C5H9NO/c1-3-5(4-6)7-2/h5H,3H2,1-2H3/t5-/m1/s1
