14
gdb 4643	7.07234	1.25819	1.07531	1.0056	74.09	-0.2158	-0.004	0.2118	1053.9561	0.106399	-345.411154	-345.403697	-345.402753	-345.442788	27.604	
C	 0.0725397798	 1.4847616125	-0.0153872014	-0.492361
C	-0.0710875697	 0.0062875459	 0.017014272	 0.389386
C	-1.1240231002	-0.8371128279	-0.1303176724	-0.404272
C	-0.6077606274	-2.1790482945	 0.0093740464	 0.139067
C	 0.732107408	-2.0279615309	 0.232310651	-0.125536
O	 1.0696355496	-0.7172071769	 0.2395330336	-0.173359
C	-1.3287126674	-3.3925545062	-0.067034326	 0.23638
C	-1.9590976186	-4.4163377742	-0.1352855512	-0.441228
H	 0.7605244689	 1.8034187048	-0.8064540076	 0.141829
H	-0.8995432732	 1.9466423604	-0.1999392691	 0.139349
H	 0.4621393788	 1.8706010937	 0.9332944272	 0.141822
H	-2.1502924433	-0.5639822232	-0.3159794502	 0.11738
H	 1.5304885426	-2.7319495991	 0.3957043831	 0.144351
H	-2.5089401078	-5.3224307444	-0.1943133353	 0.187192
117.0749	143.4352	144.7929	262.3411	329.1657	471.5818	518.9386	541.2975	559.3865	630.1918	651.0198	664.5579	707.6431	752.2762	822.3197	938.1795	994.5696	1018.181	1065.7725	1158.3634	1184.2764	1227.1971	1293.7131	1365.5498	1417.0422	1472.7929	1488.5617	1573.2433	1648.2213	2235.7223	3033.0144	3084.6155	3132.5923	3266.1683	3284.5195	3505.3879
CC1=CC(=CO1)C#C	Cc1cc(co1)C#C	
InChI=1S/C7H6O/c1-3-7-4-6(2)8-5-7/h1,4-5H,2H3	InChI=1S/C7H6O/c1-3-7-4-6(2)8-5-7/h1,4-5H,2H3
