15
gdb 2785	4.30035	2.30349	1.60696	2.1314	58.19	-0.2268	-0.026	0.2009	771.7741	0.123559	-345.646864	-345.639549	-345.638604	-345.678501	25.703	
C	 0.0535948811	 1.3186766985	 0.2442632267	-0.249266
O	-0.0390799646	 0.0269442936	-0.3357150935	-0.240868
C	-1.2649077626	-0.5936571834	-0.1065852729	 0.058627
C	-1.4257483941	-2.0170400529	-0.7065228079	-0.27087
C	-2.0769242478	-2.5149897328	 0.6194372208	-0.341312
C	-1.5412496867	-1.2322374245	 1.2815634585	 0.368627
O	-1.280515373	-0.9154008828	 2.4061155174	-0.29506
H	 1.0394465695	 1.7117797726	-0.0130872722	 0.129291
H	-0.7172251273	 1.9922407043	-0.1617376851	 0.104524
H	-0.0501828684	 1.2776846964	 1.3345150482	 0.140926
H	-2.1116675219	 0.0588804589	-0.3879354299	 0.083066
H	-2.0221754671	-2.0948358993	-1.6152099726	 0.112953
H	-0.4436878869	-2.4641929366	-0.8727792086	 0.130691
H	-3.1710787765	-2.5315975743	 0.5908125617	 0.133421
H	-1.7245971437	-3.4562016675	 1.0460500994	 0.135251
87.6287	114.8765	170.0682	234.7361	263.202	413.6398	434.8429	573.1511	676.8947	717.6597	767.0957	918.6567	928.5072	1004.3588	1037.6544	1070.0124	1093.6145	1171.6172	1181.536	1187.3522	1221.2181	1242.0593	1254.9802	1265.2405	1370.9878	1443.8668	1478.3882	1484.562	1489.0801	1513.4487	1885.5002	2938.4488	2985.29	3063.1185	3067.8223	3086.8522	3122.5315	3126.7035	3149.0271
COC1CCC1=O	CO[C@H]1CCC1=O	
InChI=1S/C5H8O2/c1-7-5-3-2-4(5)6/h5H,2-3H2,1H3	InChI=1S/C5H8O2/c1-7-5-3-2-4(5)6/h5H,2-3H2,1H3/t5-/m0/s1
