21
gdb 1693	3.97106	1.67266	1.27149	1.4485	70.88	-0.2605	0.0732	0.3336	1017.3033	0.192575	-312.132386	-312.122925	-312.121981	-312.165952	34.372	
C	 0.0665586501	 1.602285842	 0.0747251834	-0.377239
C	-0.0342721091	 0.0768884466	-0.0156013463	-0.198675
C	 0.6947440261	-0.5021560601	-1.2367465647	 0.152298
O	 2.0556271968	-0.0637609663	-1.2611117165	-0.431337
C	 0.6122303485	-2.040348763	-1.3518898817	 0.020727
C	-0.833934821	-2.5564076904	-1.3889521931	-0.395934
C	 1.3874983074	-2.5327131526	-2.5824134411	-0.386683
H	 1.1109252585	 1.9229528972	 0.0875719708	 0.125302
H	-0.4130157415	 2.0778868458	-0.7880931489	 0.11335
H	-0.4241704396	 1.9776007124	 0.9778765499	 0.106307
H	 0.3858222852	-0.3811532039	 0.8929196994	 0.081525
H	-1.0882169104	-0.2185158886	-0.0453547962	 0.101141
H	 0.25843971	-0.065207802	-2.1465352875	 0.080691
H	 2.483896705	-0.4126388482	-0.4707248053	 0.273761
H	 1.0977136018	-2.4535018911	-0.4525718858	 0.057026
H	-0.8484959145	-3.6373864184	-1.5612408952	 0.111968
H	-1.3734787063	-2.3650846086	-0.4578355169	 0.115113
H	-1.3950836118	-2.0872765705	-2.2063523603	 0.113686
H	 2.4065636561	-2.1415226024	-2.5879889248	 0.123919
H	 1.4294821043	-3.6264275372	-2.6060565909	 0.103782
H	 0.8976267545	-2.1996899107	-3.5056328783	 0.109271
71.0146	95.8278	183.2623	206.7053	222.2332	234.2646	291.6226	304.9735	344.3557	378.7532	428.6334	485.5951	517.9498	773.3367	828.0042	885.3292	929.7938	955.1118	972.9843	990.8014	1045.4499	1083.9705	1100.1994	1139.4081	1171.5952	1192.602	1259.1345	1284.2547	1330.346	1346.605	1372.2642	1387.1298	1396.9982	1403.019	1414.0193	1423.9667	1481.7224	1489.2098	1490.9673	1494.0149	1505.3357	1509.1371	1515.214	2968.7128	2994.3638	3016.1157	3027.9085	3032.6636	3037.3547	3071.4999	3089.4309	3094.9914	3100.2898	3114.6826	3125.6234	3131.2155	3788.5892
CCC(O)C(C)C	CC[C@@H](O)C(C)C	
InChI=1S/C6H14O/c1-4-6(7)5(2)3/h5-7H,4H2,1-3H3	InChI=1S/C6H14O/c1-4-6(7)5(2)3/h5-7H,4H2,1-3H3/t6-/m1/s1
