16
gdb 614	6.93163	2.19523	1.89616	1.3825	57.04	-0.2572	0.0794	0.3366	693.1326	0.142338	-271.614051	-271.606889	-271.605945	-271.644868	25.586	
C	-0.0107983425	 1.5578896506	-0.1446860524	-0.40535
C	 0.0266809723	 0.0547841562	 0.0393337418	 0.000585
C	 1.3103678926	-0.7240174427	-0.1105380505	-0.282029
C	 0.6451909487	-0.6268482788	 1.2414424316	 0.023428
C	 1.2991493842	 0.1321420147	 2.3649956657	-0.096094
O	 2.2414599403	-0.7348076729	 2.9872080676	-0.420347
H	 0.9167809805	 2.0357304993	 0.1826639437	 0.115811
H	-0.1498806854	 1.8109256138	-1.2017058678	 0.117187
H	-0.8361937739	 2.0127369908	 0.4149348735	 0.114653
H	-0.8621531924	-0.4439003547	-0.3397103664	 0.082234
H	 1.2980407048	-1.6741310986	-0.6329641645	 0.10856
H	 2.2242762466	-0.1539677397	-0.2503111544	 0.108679
H	 0.13621134	-1.5229649111	 1.586297073	 0.086788
H	 1.7937630873	 1.0366544055	 1.9801299077	 0.079957
H	 0.5354098677	 0.4621239259	 3.0884198162	 0.083005
H	 2.6039977392	-0.2777780083	 3.7519939454	 0.282935
83.0659	158.0923	217.9978	249.2204	277.0822	359.7015	423.6729	522.3867	759.9881	823.5084	871.9603	887.5956	937.6592	993.3105	1052.8608	1069.2301	1071.3817	1112.1768	1149.105	1175.2167	1199.4594	1237.1091	1257.1649	1279.7287	1376.5194	1410.9665	1422.4951	1468.4983	1491.7114	1495.3859	1507.7889	1520.5256	2962.4309	2997.1547	3028.8051	3084.8144	3104.0378	3126.7833	3131.6148	3145.683	3211.1129	3824.0713
CC1CC1CO	C[C@H]1C[C@H]1CO	
InChI=1S/C5H10O/c1-4-2-5(4)3-6/h4-6H,2-3H2,1H3	InChI=1S/C5H10O/c1-4-2-5(4)3-6/h4-6H,2-3H2,1H3/t4-,5-/m0/s1
