14
gdb 624	5.89878	3.01749	2.33352	1.6821	49.79	-0.2289	0.0739	0.3028	577.6746	0.118463	-307.529289	-307.52268	-307.521736	-307.559352	23.699	
C	 0.1045592368	 1.0270439402	 0.3570017811	-0.245679
O	-0.1144614527	-0.1045370198	-0.4746039006	-0.251327
C	-1.3876585496	-0.6569126154	-0.2902630072	 0.077619
C	-1.5574236971	-2.0685589686	-0.7851482778	-0.362169
C	-1.4634298153	-1.7920415648	 0.7013873658	 0.123482
O	-0.3055269749	-2.1278060187	 1.4025621866	-0.432703
H	 1.1190549842	 1.3788618393	 0.1565643458	 0.130592
H	-0.6054435198	 1.8329622533	 0.1223444166	 0.114655
H	 0.0086731166	 0.7718457868	 1.4204244577	 0.124706
H	-2.2079634197	 0.0538942315	-0.390708719	 0.086577
H	-2.5101557715	-2.3516482025	-1.2192156243	 0.115961
H	-0.6878762087	-2.5220073817	-1.2498556967	 0.125823
H	-2.3474320179	-1.9157905934	 1.3179620791	 0.103822
H	 0.4237193696	-1.6972645562	 0.936432763	 0.288641
103.6783	185.3453	236.3663	269.2232	377.5495	433.7581	485.6374	655.4041	757.9958	789.0588	858.4265	980.1707	1034.0637	1071.3675	1085.2249	1109.9987	1126.3443	1152.1021	1183.2606	1216.0768	1248.3463	1330.2833	1369.9694	1429.817	1473.0786	1486.2389	1488.3414	1508.8967	2995.5969	3054.8494	3098.3721	3123.5398	3131.6351	3168.6759	3223.6334	3756.956
COC1CC1O	CO[C@H]1C[C@H]1O	
InChI=1S/C4H8O2/c1-6-4-2-3(4)5/h3-5H,2H2,1H3	InChI=1S/C4H8O2/c1-6-4-2-3(4)5/h3-5H,2H2,1H3/t3-,4+/m1/s1
