13
gdb 1057	7.49983	1.92913	1.56793	4.8687	55.77	-0.215	0.0302	0.2452	740.2332	0.103681	-340.660061	-340.653531	-340.652587	-340.691257	22.932	
O	 0.0492189743	 1.3522426712	 0.3805453444	-0.40304
C	 0.0144734208	 0.0010174502	-0.0446855578	-0.194466
C	-1.4066453976	-0.4565732459	-0.0150123581	 0.306909
C	-2.5947825227	 0.2201120129	-0.1135158562	-0.142582
N	-3.6617719697	-0.649807402	-0.0564568985	-0.252773
C	-3.1303659126	-1.841204561	 0.0725036507	 0.008636
N	-1.765710295	-1.7837449675	 0.10542816	-0.313121
H	 0.9014844226	 1.7204313479	 0.1302000039	 0.291796
H	 0.4299535454	-0.0992476464	-1.0619347379	 0.104689
H	 0.6278342693	-0.6447092153	 0.6092314212	 0.089127
H	-2.7331580226	 1.2849090715	-0.2099111145	 0.117207
H	-3.6672658937	-2.7751597818	 0.1471995576	 0.126653
H	-1.1378961984	-2.5625827438	 0.2157756253	 0.260964
37.7987	183.6834	226.9789	270.951	444.5099	504.6881	645.9109	681.5734	701.4698	800.9639	858.5147	931.6666	1014.8195	1037.1662	1083.5247	1110.1581	1141.889	1228.5529	1233.8755	1256.5389	1285.0251	1373.9691	1435.487	1475.3218	1505.146	1518.2904	1619.1954	2936.4282	2955.8662	3249.6755	3268.1743	3659.6583	3833.4001
OCC1=CN=CN1	OCc1cnc[nH]1	
InChI=1S/C4H6N2O/c7-2-4-1-5-3-6-4/h1,3,7H,2H2,(H,5,6)	InChI=1S/C4H6N2O/c7-2-4-1-5-3-6-4/h1,3,7H,2H2,(H,5,6)
