14
gdb 1213	8.63684	1.19501	1.06428	3.5015	59.71	-0.2492	0.0266	0.2758	1032.2971	0.11116	-324.582445	-324.573988	-324.573044	-324.617047	28.596	
N	-0.0570397916	 1.3465548622	-0.0559923396	-0.529124
C	 0.0726397193	-0.0085953612	 0.0427322564	 0.415371
O	 1.1547370241	-0.5555946106	 0.1324461729	-0.352272
C	-1.2486493379	-0.7759542657	 0.0278212477	-0.309259
C	-1.0196966929	-2.2945557186	-0.0340069107	-0.348677
C	-2.2691394203	-3.0439066969	-0.0028067866	 0.282418
C	-3.3134120391	-3.6387676584	 0.0242450216	-0.430314
H	 0.7736228906	 1.9113016956	 0.0106345016	 0.261648
H	-0.9523804161	 1.802192845	-0.0695778123	 0.258751
H	-1.8172012038	-0.5197352387	 0.9300151077	 0.134703
H	-1.8584171567	-0.4464742858	-0.8211043307	 0.128352
H	-0.4555606392	-2.5382945753	-0.9409758308	 0.144982
H	-0.3741518011	-2.5906852589	 0.7992064962	 0.151423
H	-4.2251928055	-4.1819585028	 0.0480126467	 0.191998
14.1082	73.1683	120.8904	125.395	246.1441	345.1034	396.7695	501.3788	516.8058	610.2226	618.2278	637.8754	641.9987	788.4639	853.5306	962.8375	1035.3824	1053.2074	1094.9738	1175.3818	1245.1936	1305.4158	1338.2288	1402.8938	1462.1281	1473.7105	1618.0633	1797.0412	2239.5699	3036.8685	3051.6677	3069.0534	3090.6162	3507.9806	3603.4404	3739.7108
NC(=O)CCC#C	NC(=O)CCC#C	
InChI=1S/C5H7NO/c1-2-3-4-5(6)7/h1H,3-4H2,(H2,6,7)	InChI=1S/C5H7NO/c1-2-3-4-5(6)7/h1H,3-4H2,(H2,6,7)
