12
gdb 3855	3.82106	3.36361	1.80201	1.9155	51.95	-0.1995	0.0317	0.2312	645.2745	0.091965	-356.698196	-356.691421	-356.690477	-356.728943	23.989	
N	 0.163170993	 1.4219875419	-0.1164038815	-0.616179
C	-0.0017845615	 0.0282701896	-0.0451813633	 0.274333
C	-1.1202555788	-0.7860500509	-0.0510542372	 0.182595
O	-2.4025337879	-0.3089678788	-0.0668280628	-0.458257
C	-0.6231466303	-2.1048279217	-0.0135485862	-0.116263
N	 0.7105070182	-2.121697646	 0.0180918741	-0.22753
N	 1.0596733102	-0.8242182857	-0.0092658607	-0.2171
H	 0.3073290063	 1.8400912969	 0.7987280921	 0.249389
H	-0.6690316388	 1.8452009343	-0.5126227127	 0.256552
H	-2.9968469611	-1.0288056778	-0.2966012471	 0.299983
H	-1.176566271	-3.0334171278	-0.0003502917	 0.10109
H	 2.0316413317	-0.565954224	-0.0306001732	 0.271387
82.9323	178.1823	245.5186	268.3465	335.9601	458.3018	486.9608	663.768	674.0929	698.6249	754.2401	838.2557	840.823	948.7761	1114.6885	1146.7255	1168.8966	1261.2549	1303.9237	1342.6796	1406.5548	1446.9527	1554.4313	1650.0877	1682.6414	3229.1595	3489.7328	3578.2695	3673.1227	3843.9883
NC1=C(O)C=NN1	Nc1c(O)cn[nH]1	
InChI=1S/C3H5N3O/c4-3-2(7)1-5-6-3/h1,7H,(H3,4,5,6)	InChI=1S/C3H5N3O/c4-3-2(7)1-5-6-3/h1,7H,(H3,4,5,6)
