15
gdb 1042	6.73652	1.9268	1.67619	3.4175	62.81	-0.2142	0.0354	0.2496	770.3793	0.127282	-304.746925	-304.740221	-304.739277	-304.778331	24.253	
C	 0.0574570609	 1.4520239775	-0.3602258562	-0.370441
C	-0.0559476714	 0.0417112318	 0.2464378408	-0.287516
C	-1.4417470525	-0.5183463539	 0.1889251755	 0.345998
N	-2.319692974	-0.5159072286	 1.1702389844	-0.296287
C	-3.4605874698	-1.0906278346	 0.6573354933	-0.0868
C	-3.2754405323	-1.4465464559	-0.6503205791	-0.113918
N	-1.9795920182	-1.0742475381	-0.9403338189	-0.272953
H	 1.0815185383	 1.8288373166	-0.2776234857	 0.115589
H	-0.2172682959	 1.455056215	-1.4203445991	 0.108641
H	-0.6080890449	 2.1471121433	 0.1591636605	 0.136872
H	 0.6427321213	-0.6353964086	-0.2614664789	 0.099654
H	 0.2342942059	 0.0686689802	 1.2998342393	 0.134582
H	-4.3461531883	-1.2183813949	 1.2611780805	 0.103172
H	-3.9114250784	-1.9188094544	-1.3803184088	 0.122792
H	-1.5119102607	-1.2002574855	-1.8221601974	 0.260616
33.1219	153.5393	214.751	351.2232	385.799	531.5965	645.2387	654.429	720.4482	752.798	784.61	854.2905	927.0936	957.2619	998.1891	1058.3304	1082.1694	1106.7551	1139.2994	1187.6204	1250.6052	1303.4682	1349.7109	1393.316	1408.4133	1460.8357	1478.5126	1496.4954	1503.3548	1515.0992	1592.4505	3028.1439	3036.518	3092.9564	3110.7972	3121.0928	3247.164	3278.8967	3663.9301
CCC1=NC=CN1	CCc1ncc[nH]1	
InChI=1S/C5H8N2/c1-2-5-6-3-4-7-5/h3-4H,2H2,1H3,(H,6,7)	InChI=1S/C5H8N2/c1-2-5-6-3-4-7-5/h3-4H,2H2,1H3,(H,6,7)
