16
gdb 3139	5.52942	2.01665	1.77633	1.6216	60.2	-0.2365	0.0631	0.2996	746.9279	0.1375	-325.721867	-325.715062	-325.714117	-325.752653	25.42	
O	 0.2364148255	 1.3343378884	 0.1208022695	-0.412555
C	 0.0303612747	-0.0419072358	-0.1721233629	-0.165342
C	-1.4155439247	-0.4316118734	-0.0616612067	 0.329553
C	-2.0224371707	-0.9353832652	 1.1921303321	-0.285884
N	-1.863107557	-1.8805848843	 0.0703982453	-0.168482
C	-2.996741133	-1.5627989154	-0.8739504542	-0.148323
C	-2.5042922147	-0.108252405	-1.0865301147	-0.303864
H	-0.084691914	 1.4888673756	 1.0155546652	 0.281902
H	 0.3848231878	-0.1796179831	-1.1993771948	 0.111776
H	 0.632615581	-0.6988862449	 0.4745224563	 0.097027
H	-1.3594216493	-1.1559223761	 2.0242578526	 0.116966
H	-3.0250519429	-0.6243255846	 1.4813736613	 0.109388
H	-2.9266909904	-2.1913785812	-1.7634302019	 0.114113
H	-3.9851957901	-1.6953321094	-0.4217779942	 0.104745
H	-3.1850612981	 0.7107710913	-0.8393477211	 0.104213
H	-2.1039396141	 0.0612021532	-2.0882525017	 0.114766
81.1773	164.1113	273.8718	294.1023	370.58	412.0601	480.7979	690.5569	750.0589	777.9854	824.0822	889.2372	934.1346	943.3906	974.5597	1005.8268	1058.7091	1086.186	1100.9799	1124.7101	1180.0725	1194.6195	1220.427	1247.9157	1287.4951	1332.5789	1352.2792	1393.1081	1424.6639	1487.8433	1491.7863	1502.21	1518.9731	2987.6433	3047.9503	3061.9338	3070.4683	3093.8873	3105.4481	3123.3916	3185.381	3808.2621
OCC12CN1CC2	OC[C@]12CN1CC2	
InChI=1S/C5H9NO/c7-4-5-1-2-6(5)3-5/h7H,1-4H2	InChI=1S/C5H9NO/c7-4-5-1-2-6(5)3-5/h7H,1-4H2/t5-,6?/m0/s1
