12
gdb 280	5.34084	3.5511	2.16491	1.9354	48.43	-0.2483	-0.0515	0.1968	562.5203	0.09552	-302.580808	-302.574009	-302.573065	-302.611309	23.683	
C	 0.0843270772	 1.4736246812	 0.0098353112	-0.470486
C	 0.0549001641	-0.03188663	-0.0006041612	 0.393103
O	-0.0028565971	-0.7066578722	 1.0056591752	-0.316233
C	 0.092401244	-0.7232131686	-1.3606079816	 0.252713
N	 0.1841433142	-2.07963833	-1.2455296206	-0.533555
N	 0.0563537318	 0.009672324	-2.4105465845	-0.506324
H	 1.0053462005	 1.830567193	-0.4607129148	 0.157006
H	-0.7353903615	 1.869969775	-0.594900395	 0.161268
H	 0.0179389257	 1.8306185203	 1.0378393118	 0.133094
H	 0.032848623	-2.4553551353	-0.3212527207	 0.270516
H	-0.0089797075	-2.6672990493	-2.0381590877	 0.252909
H	 0.0780202957	-0.552400938	-3.2646846122	 0.205989
74.7765	117.718	281.6327	306.7684	401.4798	411.5999	513.1645	542.8664	578.7417	700.7643	731.2007	879.2318	975.7805	1049.8255	1089.3244	1139.4867	1211.1246	1381.9754	1432.5759	1453.5057	1459.4925	1598.7723	1718.5669	1796.1313	3057.4878	3122.7556	3162.8437	3440.9127	3581.3413	3716.5439
CC(=O)C(N)=N	CC(=O)C(=N)N	
InChI=1S/C3H6N2O/c1-2(6)3(4)5/h1H3,(H3,4,5)	InChI=1S/C3H6N2O/c1-2(6)3(4)5/h1H3,(H3,4,5)
