19
gdb 1752	4.85814	1.65567	1.46262	1.0092	68.2	-0.2437	0.0901	0.3337	930.0795	0.169674	-310.904974	-310.896623	-310.895679	-310.937475	30.641	
C	 0.0296238701	 1.5137505802	-0.1639591821	-0.382202
C	-0.1373885798	 0.0031163632	-0.1584603858	-0.047953
O	 0.9015648033	-0.5554601213	-0.9484649183	-0.289541
C	 0.8074947775	-1.9372372337	-1.1694017706	 0.459764
C	 1.0960767595	-2.8054751698	 0.0367816458	-0.455437
C	-0.1894206198	-2.3928909488	-2.209662148	-0.318136
C	 1.295450241	-2.3578305368	-2.5220253206	-0.311257
H	 1.0055132653	 1.79276103	 0.2437216729	 0.126135
H	-0.0378058993	 1.904119892	-1.1834900805	 0.123248
H	-0.7482944661	 1.9866304067	 0.4431344084	 0.112131
H	-0.0924860818	-0.3790867102	 0.8727647991	 0.088337
H	-1.1185152835	-0.282121094	-0.5685681511	 0.086692
H	 0.3460867365	-2.6743569865	 0.8240553652	 0.117073
H	 1.0985206966	-3.8631441586	-0.2416710163	 0.115698
H	 2.0771163364	-2.5587529238	 0.4564082214	 0.123309
H	-0.6737054316	-3.3555785713	-2.0845061561	 0.108727
H	-0.8076552276	-1.6320377253	-2.672750841	 0.11462
H	 1.6443290995	-1.5671326663	-3.175836549	 0.120805
H	 1.8323929237	-3.2960280757	-2.6098862136	 0.107989
69.0993	111.4599	191.6168	219.3583	248.6365	306.2865	326.6468	402.0625	418.2572	511.5241	715.8781	779.0156	822.5588	854.6048	871.4884	928.2575	953.761	985.1589	1032.094	1056.1453	1075.0997	1095.8359	1122.0049	1156.3711	1188.4499	1189.3305	1288.8674	1296.662	1338.3197	1400.3866	1413.6676	1428.2353	1453.8129	1483.0614	1484.4588	1492.2483	1501.1225	1508.1229	1530.5166	2978.2725	3006.6922	3033.8141	3043.8052	3096.2027	3112.331	3117.9384	3120.3093	3132.0034	3138.3475	3216.1474	3231.9669
CCOC1(C)CC1	CCOC1(C)CC1	
InChI=1S/C6H12O/c1-3-7-6(2)4-5-6/h3-5H2,1-2H3	InChI=1S/C6H12O/c1-3-7-6(2)4-5-6/h3-5H2,1-2H3
