10
gdb 2815	4.19866	2.33606	1.63979	6.6794	52.54	-0.3126	-0.0258	0.2868	696.8575	0.067524	-318.340705	-318.33449	-318.333546	-318.371098	21.41	
N	-0.1769272262	-1.1599293982	-0.0082428335	-0.308641
C	-0.0763858728	-0.0095750845	 0.0181039156	 0.350952
C	 0.0157902929	 1.4306993106	 0.0091601225	-0.183829
N	 0.5313860154	 2.07508767	 1.2208184809	-0.285452
C	 1.3404838517	 2.147327977	 0.0004363013	-0.183826
C	 2.5965131484	 1.4364374489	 0.0005560959	 0.350932
N	 3.6139463216	 0.8907179231	-0.0331921302	-0.308636
H	-0.7814649604	 1.9180417301	-0.5464211548	 0.152255
H	 0.0549346805	 2.957869255	 1.3869067146	 0.263993
H	 1.3631335188	 3.078189078	-0.5606085824	 0.152251
99.025	195.8352	256.7219	256.768	461.9215	538.3638	599.952	650.1069	762.7723	845.0152	902.2101	971.946	974.6834	1095.3114	1193.5221	1194.0694	1240.417	1397.5213	1444.2517	2371.0309	2371.7422	3145.5316	3152.8891	3518.1461
N#CC1NC1C#N	N#C[C@H]1N[C@H]1C#N	
InChI=1S/C4H3N3/c5-1-3-4(2-6)7-3/h3-4,7H	InChI=1S/C4H3N3/c5-1-3-4(2-6)7-3/h3-4,7H/t3-,4+
