17
gdb 3473	4.35733	2.87744	2.5795	0.4827	67.72	-0.2333	0.1046	0.3379	641.0551	0.149997	-272.53819	-272.532181	-272.531237	-272.567531	24.165	
C	-0.0721732346	 1.55308658	-0.0462156107	-0.530375
C	 0.0104669741	 0.0641742217	 0.0088258167	 0.365637
C	 0.0340435068	-1.0097189108	-1.0550354968	-0.107576
C	 1.2989798549	-1.6398967931	-0.480190296	-0.223446
C	 0.9080592903	-0.947726498	 0.853830618	-0.104275
C	-0.3973387813	-1.6685254752	 1.287319473	-0.223445
C	-1.033942383	-1.0278092399	 0.0577397107	-0.107577
H	 0.8813393442	 2.0019946152	-0.3495560047	 0.11853
H	-0.8309607414	 1.8711490568	-0.7700633978	 0.120623
H	-0.3443171102	 1.9811493528	 0.9261124868	 0.118528
H	-0.2568823807	-0.9129826002	-2.0940877536	 0.077163
H	 1.3963927041	-2.7324315535	-0.4711842721	 0.083279
H	 2.1976536184	-1.1971390009	-0.91954464	 0.094089
H	 1.6669000852	-0.6784015785	 1.5864696491	 0.064316
H	-0.3666328409	-2.7621815211	 1.3658886544	 0.083273
H	-0.806403852	-1.2478109652	 2.2105471467	 0.094092
H	-2.0855266239	-0.9439662501	-0.1887665637	 0.077163
205.8175	215.8608	270.9851	418.3372	467.687	605.7204	715.2566	715.9011	801.4938	860.9114	871.707	910.0812	917.1619	965.5406	985.0963	1006.846	1021.9663	1026.2651	1078.9921	1096.867	1125.4973	1139.1009	1168.8087	1182.2255	1223.8385	1225.7453	1251.3927	1295.2455	1318.4213	1410.9774	1458.3053	1484.0414	1492.068	1497.9526	1510.4797	3015.4097	3020.8001	3028.3146	3071.428	3085.906	3086.8464	3089.147	3128.4329	3180.8875	3191.2999
CC12C3CC1CC23	C[C@@]12[C@H]3C[C@@H]1C[C@@H]23	
InChI=1S/C7H10/c1-7-4-2-5(7)6(7)3-4/h4-6H,2-3H2,1H3	InChI=1S/C7H10/c1-7-4-2-5(7)6(7)3-4/h4-6H,2-3H2,1H3/t4-,5+,6-,7+
