14
gdb 3579	4.87032	3.11486	2.61615	1.4949	56.31	-0.2159	0.0466	0.2625	573.5809	0.112597	-324.460304	-324.454343	-324.453399	-324.489819	22.873	
C	-0.1620772297	 1.5786319253	-0.0628879419	-0.294526
N	 0.1625009797	 0.1531017265	 0.0396471896	-0.057833
C	 1.376741469	-0.5200182716	-0.30317651	-0.094236
C	 2.6869149055	 0.1706088513	 0.2546230554	-0.001292
O	 2.3256225979	 1.3864870496	 0.9171922835	-0.232699
C	 2.1511439322	 0.146223004	 1.609458235	-0.0013
C	 0.8223496043	-0.5453228377	 1.0987831743	-0.094248
H	 0.5263010784	 2.1000743105	-0.7313498147	 0.127009
H	-1.1789097868	 1.6722704893	-0.4626050396	 0.106801
H	-0.1220362769	 2.0707341019	 0.9111883977	 0.127028
H	 1.3847766253	-1.2917070988	-1.0658558115	 0.097504
H	 3.698760214	 0.0701107477	-0.1180783662	 0.110143
H	 2.6358051091	 0.0217506994	 2.5698987788	 0.110144
H	 0.3163132779	-1.3404860573	 1.6362683396	 0.097505
121.4273	241.5994	270.931	407.8947	524.6851	656.9831	730.2249	746.0913	766.8383	841.4929	858.4105	863.1748	903.6253	958.611	973.6509	1037.5526	1040.4091	1053.9008	1142.2423	1170.6393	1211.6256	1221.0408	1238.9214	1260.5749	1363.2526	1404.6755	1454.741	1485.6116	1505.6309	3023.7382	3094.2489	3130.6996	3157.9779	3168.8714	3188.1126	3204.093
CN1C2C3OC3C12	CN1[C@H]2[C@H]3O[C@H]3[C@@H]12	
InChI=1S/C5H7NO/c1-6-2-3(6)5-4(2)7-5/h2-5H,1H3	InChI=1S/C5H7NO/c1-6-2-3(6)5-4(2)7-5/h2-5H,1H3/t2-,3+,4-,5+,6?
