15
gdb 2381	4.60584	1.93909	1.76264	3.3936	58.4	-0.2495	-0.0278	0.2217	781.738	0.12236	-345.655509	-345.647763	-345.646819	-345.687575	27.05	
C	 0.2724819549	 1.5212849697	-0.4188429224	-0.431766
C	-0.0191402893	 0.1061420098	 0.0029807709	 0.085695
O	 1.0646947347	-0.8096086118	 0.0355428716	-0.230387
C	 0.4467863003	-0.502568409	 1.2803270451	-0.052467
C	 1.2475397488	 0.2830182422	 2.2880235678	 0.374757
C	 0.7374925112	 0.1977958856	 3.7143945727	-0.487941
O	 2.2155910351	 0.9380257472	 1.9783078918	-0.299737
H	 1.1892088648	 1.8844913002	 0.0462931184	 0.1663
H	 0.3897776347	 1.5619893831	-1.5068245645	 0.13165
H	-0.5613274433	 2.1780421854	-0.1484316699	 0.118669
H	-0.9408143452	-0.3207230488	-0.4000748881	 0.096767
H	-0.1593194141	-1.3073549872	 1.6998480523	 0.094204
H	 0.8602986021	-0.8234968255	 4.0943021067	 0.147242
H	 1.2931118485	 0.8898882022	 4.3474769241	 0.147288
H	-0.3337750332	 0.4256849768	 3.7587432636	 0.139726
67.6768	129.9602	176.4039	201.2361	238.7856	348.5004	386.5421	441.2051	609.5324	616.4578	772.5995	819.5306	873.0319	949.9839	986.9944	1011.4137	1055.4113	1087.8488	1158.0417	1167.693	1196.1948	1286.5227	1377.4401	1391.6241	1412.1283	1447.6406	1463.0116	1473.5258	1491.4487	1503.3476	1811.4781	3033.0194	3040.994	3078.0381	3091.9634	3098.4122	3101.0044	3156.3383	3156.8626
CC1OC1C(C)=O	C[C@H]1O[C@H]1C(=O)C	
InChI=1S/C5H8O2/c1-3(6)5-4(2)7-5/h4-5H,1-2H3	InChI=1S/C5H8O2/c1-3(6)5-4(2)7-5/h4-5H,1-2H3/t4-,5+/m1/s1
