15
gdb 2536	3.33713	2.12148	1.50122	3.4684	57.75	-0.2423	0.0243	0.2666	831.3134	0.124754	-341.827199	-341.819096	-341.818152	-341.859724	27.937	
C	-0.6145773528	 1.1656068993	 0.1406995189	-0.324031
N	 0.5319271104	 0.2928060764	-0.0899852599	-0.271628
C	 1.0104013409	-0.3948842149	 1.1032636914	-0.129737
C	 0.1582000732	-1.6226838714	 1.5190510041	-0.079349
O	 0.0751444678	-2.5622821555	 0.466989074	-0.41544
C	 2.3934468422	-0.8603002777	 0.879345353	 0.274833
N	 3.4485112882	-1.2999441457	 0.7083108438	-0.322129
H	-0.3184734797	 1.9877244959	 0.8015630023	 0.129254
H	-0.9199844963	 1.6021162848	-0.8136971774	 0.133829
H	-1.4967607545	 0.6749690171	 0.5843548968	 0.105285
H	 0.3068741942	-0.4132082387	-0.7847048289	 0.235659
H	 1.029715554	 0.3219963492	 1.9340745077	 0.125743
H	 0.5585228051	-2.0645195625	 2.4424385375	 0.111576
H	-0.8645218596	-1.2898810945	 1.7181710549	 0.124266
H	 0.9390023671	-2.9809480818	 0.3713216218	 0.30187
85.8407	105.9481	158.416	189.526	228.5466	292.4275	378.335	409.2424	452.3899	560.0741	697.0964	746.7195	863.3656	901.9431	992.0447	1044.9513	1091.8691	1132.9648	1162.4183	1185.7945	1223.7778	1286.5468	1347.2353	1386.2971	1413.9043	1458.7473	1485.6501	1497.344	1502.7705	1521.8886	2355.0129	2965.419	3009.0608	3041.978	3063.289	3095.8783	3114.668	3519.125	3792.364
CNC(CO)C#N	CN[C@@H](CO)C#N	
InChI=1S/C4H8N2O/c1-6-4(2-5)3-7/h4,6-7H,3H2,1H3	InChI=1S/C4H8N2O/c1-6-4(2-5)3-7/h4,6-7H,3H2,1H3/t4-/m1/s1
