18
gdb 4944	4.95469	1.29085	1.11755	1.7676	76.01	-0.1712	0.0529	0.2241	1105.8239	0.155037	-344.015602	-344.007213	-344.006269	-344.04884	31.074	
C	-0.0124515193	 1.5435924467	-0.0544861081	-0.366157
C	-0.0293074335	 0.0144889176	 0.0416477104	-0.1555
N	-1.3650907146	-0.5504501594	 0.0410719568	 0.035541
C	-2.1025535598	-0.8606880802	 1.1484852576	-0.083458
C	-3.3584499203	-1.2597652668	 0.7459003691	-0.241296
C	-3.3881151564	-1.1872216724	-0.6763513019	 0.238026
N	-4.509401734	-1.4533528999	-1.489614073	-0.605205
C	-2.1469438848	-0.7437292835	-1.0844456729	-0.183201
H	 1.0179511244	 1.9137193499	-0.0568746156	 0.114576
H	-0.5014173939	 1.8812297261	-0.9726658932	 0.129648
H	-0.5389629965	 1.990624974	 0.793633589	 0.129313
H	 0.5288320757	-0.4217547515	-0.7945782979	 0.114283
H	 0.4687187685	-0.3124986611	 0.9599306885	 0.115138
H	-1.6736392026	-0.7761093812	 2.1349349862	 0.108349
H	-4.163262524	-1.5800394525	 1.3904947792	 0.082383
H	-5.0679993406	-2.2144455017	-1.123592858	 0.236958
H	-4.2474968189	-1.6798041259	-2.4409456695	 0.234009
H	-1.7535692393	-0.5530394582	-2.0704599365	 0.096594
44.9368	100.3577	170.4812	206.2807	288.469	299.1999	394.1674	427.8552	594.4605	608.9324	627.2384	657.8909	713.4973	729.9127	770.9797	792.9328	801.2565	946.2968	996.4533	1023.258	1082.1625	1097.4774	1107.4174	1128.9472	1209.3526	1269.7466	1309.1974	1378.9425	1388.4873	1407.1828	1437.4533	1456.2216	1481.9767	1488.3167	1506.1532	1545.471	1621.8329	1656.8366	3038.6559	3040.4733	3080.8071	3113.701	3124.1422	3236.9699	3251.1574	3258.9809	3526.6193	3613.7498
CCN1C=CC(N)=C1	CCn1ccc(N)c1	
InChI=1S/C6H10N2/c1-2-8-4-3-6(7)5-8/h3-5H,2,7H2,1H3	InChI=1S/C6H10N2/c1-2-8-4-3-6(7)5-8/h3-5H,2,7H2,1H3
