21
gdb 3067	8.78822	0.9599	0.92286	0.0991	75.32	-0.27	0.0935	0.3635	1327.6142	0.194549	-274.982287	-274.973701	-274.972757	-275.015656	31.089	
C	-0.0145763991	 1.5323861469	-0.1845692476	-0.379281
C	-0.0181510834	 0.0223200593	 0.0681001741	-0.162944
C	-1.4164634384	-0.5993233093	-0.0067245726	-0.149061
C	-1.4275747898	-2.1118437793	 0.2490010387	-0.204098
C	-2.8115729462	-2.7219387789	 0.1781572842	 0.036777
C	-3.3929419589	-3.1467891061	-1.1481012515	-0.254109
C	-2.9940432919	-4.1862044173	-0.1274900055	-0.276721
H	 0.9963963285	 1.947378383	-0.1217094313	 0.109452
H	-0.4099241099	 1.7683372255	-1.1790074502	 0.112636
H	-0.6362256468	 2.0578305901	 0.5491490259	 0.112407
H	 0.6373280379	-0.4727104601	-0.6610594423	 0.092301
H	 0.4181744902	-0.1853844495	 1.0544378777	 0.09271
H	-2.072750951	-0.1041353323	 0.7229056669	 0.088834
H	-1.8560454568	-0.3963553588	-0.9926709947	 0.094291
H	-0.777419618	-2.6103857306	-0.4834091831	 0.087422
H	-0.9854373216	-2.3164448907	 1.2343681481	 0.092041
H	-3.5210503801	-2.2979753149	 0.8856479041	 0.077386
H	-4.4492317673	-2.9836084359	-1.3315918014	 0.107731
H	-2.7692822302	-3.0405124588	-2.0303135728	 0.106956
H	-2.1045398196	-4.7754186916	-0.3265316514	 0.107482
H	-3.7785868774	-4.7302543904	 0.3870331149	 0.107788
68.8517	85.7795	123.5552	144.9709	243.1299	284.8025	311.4882	410.0919	456.5789	734.9015	775.4226	780.6586	823.3034	835.8808	889.6773	914.9698	944.8681	976.1623	1028.8111	1048.3459	1067.6904	1071.8153	1077.0672	1130.2917	1144.5066	1199.4004	1208.4741	1228.0064	1254.4827	1277.1306	1317.003	1328.9926	1355.4612	1395.6775	1411.3586	1419.9334	1469.7471	1481.9462	1486.6647	1499.1681	1499.6066	1508.0733	1513.1754	3000.2794	3004.9901	3014.9945	3024.4304	3028.198	3035.8292	3057.8671	3093.952	3099.5626	3126.2394	3127.061	3132.5574	3203.8241	3219.2228
CCCCC1CC1	CCCCC1CC1	
InChI=1S/C7H14/c1-2-3-4-7-5-6-7/h7H,2-6H2,1H3	InChI=1S/C7H14/c1-2-3-4-7-5-6-7/h7H,2-6H2,1H3
