16
gdb 3162	3.76357	2.74103	1.90846	1.4489	60.66	-0.24	0.0723	0.3123	705.077	0.137544	-325.733758	-325.727043	-325.726099	-325.764144	25.769	
O	 0.4365332809	 0.9203719766	-0.6923491824	-0.426334
C	 0.0774045211	-0.2335199262	 0.023310872	 0.078302
C	 0.0302075756	-0.2272550531	 1.5805670326	-0.260306
C	-1.250682215	-1.1124924055	 1.5140305714	-0.297456
C	-1.3853520936	-0.7028038963	 0.0445249807	 0.331018
C	-2.5008793721	 0.0081662312	-0.6192937045	-0.310724
N	-2.1502969346	-1.3804296178	-0.9882057413	-0.374601
H	-0.1029330453	 1.6479274572	-0.3635076	 0.278216
H	 0.7385901459	-1.0256532573	-0.3461783714	 0.095299
H	 0.8994378325	-0.619898881	 2.1108050814	 0.105762
H	-0.1902842777	 0.7766005495	 1.9578309001	 0.097297
H	-1.0300959395	-2.1782834139	 1.6199986666	 0.113653
H	-2.0732788014	-0.8548000834	 2.1839981871	 0.106706
H	-3.457156526	 0.120410337	-0.1148300321	 0.118108
H	-2.2516606743	 0.8048342945	-1.3168668122	 0.111481
H	-1.6284891965	-1.3818528615	-1.8628182182	 0.23358
114.3918	219.5011	257.4619	321.3689	347.8926	430.94	533.3264	567.4873	705.9442	786.9892	834.0949	894.1301	913.6938	943.5793	960.6794	981.5809	1029.5173	1064.9162	1095.6732	1120.7162	1143.9452	1180.226	1223.1113	1242.3419	1262.3788	1277.916	1302.4471	1318.9628	1411.0426	1432.4244	1477.411	1495.4898	1508.347	3048.7853	3056.4705	3064.8586	3098.2115	3113.0805	3125.7372	3185.2942	3480.4138	3802.2603
OC1CCC11CN1	O[C@H]1CC[C@]21CN2	
InChI=1S/C5H9NO/c7-4-1-2-5(4)3-6-5/h4,6-7H,1-3H2	InChI=1S/C5H9NO/c7-4-1-2-5(4)3-6-5/h4,6-7H,1-3H2/t4-,5+/m0/s1
