14
gdb 151	12.65097	3.37781	3.01126	1.0617	50.07	-0.2299	0.095	0.3249	474.34	0.126034	-212.439286	-212.433577	-212.432633	-212.467838	20.247	
C	 0.1818156289	 1.4736209082	 0.0737659409	-0.372178
C	-0.1918358624	 0.0040433311	-0.0970084801	-0.111998
N	 0.499614032	-0.578513183	-1.2435461063	-0.054447
C	 1.8165591414	-1.1478015431	-0.9778058419	-0.217056
C	 0.644946899	-2.0283209372	-1.2432828952	-0.218398
H	 1.252530291	 1.584850701	 0.2740559224	 0.116842
H	-0.0512781824	 2.0361142862	-0.8346765216	 0.127182
H	-0.3668214893	 1.9179612568	 0.9098979536	 0.110809
H	 0.0252752989	-0.5503888867	 0.8354923063	 0.075085
H	-1.2693436364	-0.0906607865	-0.2783714283	 0.1023
H	 2.5710779243	-0.9825077745	-1.7415805419	 0.115067
H	 2.1887577672	-1.1160589363	 0.0457130636	 0.106014
H	 0.2408201869	-2.5831151417	-0.397398117	 0.105906
H	 0.5257109509	-2.5176572543	-2.2059181247	 0.11487
115.8655	229.3428	254.1665	382.1496	464.9094	735.4807	804.3262	832.6971	894.199	950.7078	1021.4145	1052.7218	1103.8539	1111.9067	1115.6133	1151.2781	1181.8432	1214.0469	1307.365	1322.6785	1386.1078	1410.4233	1486.3043	1489.1924	1493.4573	1507.7413	1523.812	2923.9983	3039.0349	3045.9219	3088.9132	3093.8914	3107.9897	3118.9398	3172.9618	3187.3837
CCN1CC1	CCN1CC1	
InChI=1S/C4H9N/c1-2-5-3-4-5/h2-4H2,1H3	InChI=1S/C4H9N/c1-2-5-3-4-5/h2-4H2,1H3
