14
gdb 689	6.51241	3.58887	2.9665	1.8181	52.62	-0.2504	0.0893	0.3397	504.2055	0.119783	-270.394309	-270.388733	-270.387789	-270.422993	21.008	
C	-0.0471642048	 1.5638901765	 0.0675950694	-0.402858
C	 0.0407409787	 0.0455833136	 0.0114434589	 0.008651
C	 1.115771323	-0.6158357643	-0.9361237739	-0.267913
C	 1.7236084421	-1.2882842795	 0.3004996399	 0.039073
O	 2.0999949673	-0.2435416533	 1.2067056541	-0.245389
C	 0.7321359461	-0.6676238312	 1.1912091738	 0.023205
H	 0.9290074866	 1.9892807815	 0.3162768288	 0.133712
H	-0.3661094964	 1.9756216287	-0.8957962355	 0.113266
H	-0.7677669554	 1.8916451237	 0.825017996	 0.112351
H	-0.9424986153	-0.3978804263	-0.1762784564	 0.075523
H	 0.6750999899	-1.3192842945	-1.6465395155	 0.103834
H	 1.7877046146	 0.0657892636	-1.4641332136	 0.108281
H	 2.2591478957	-2.2274112019	 0.38138845	 0.101532
H	 0.3100708979	-1.0028029565	 2.132732324	 0.096731
181.5281	230.4617	299.1808	411.5511	565.9915	699.3321	797.5416	837.5128	854.0788	865.0988	914.2094	966.1066	981.8556	1034.2048	1062.7149	1110.7853	1116.3041	1190.3778	1220.854	1240.1029	1245.8081	1284.9867	1358.6584	1387.0689	1409.4585	1474.3667	1491.9505	1503.695	3031.9467	3054.6889	3064.1441	3094.3065	3117.2722	3121.595	3170.3866	3188.3863
CC1CC2OC12	C[C@H]1C[C@H]2O[C@@H]12	
InChI=1S/C5H8O/c1-3-2-4-5(3)6-4/h3-5H,2H2,1H3	InChI=1S/C5H8O/c1-3-2-4-5(3)6-4/h3-5H,2H2,1H3/t3-,4+,5-/m0/s1
