17
gdb 4135	5.02462	1.32461	1.26693	1.4886	73.3	-0.2339	0.0363	0.2702	1015.9136	0.141967	-363.760384	-363.752821	-363.751877	-363.791998	29.049	
C	-0.1624646118	 1.5287576092	 0.0011851616	-0.442412
C	 0.0434771372	 0.0204961883	 0.0185166176	 0.050801
C	 1.2319612577	-0.6550271826	-0.7752698954	-0.154797
C	 2.1916436777	-0.1478139782	 0.3596870969	-0.239095
C	 0.9284126038	-0.678363	 1.124654001	-0.143984
C	 0.9932102551	-1.8350823563	 0.1518581068	 0.511831
N	 0.8913862296	-3.0888532018	 0.2071644083	-0.329698
O	 1.0535318078	-3.6666529753	-1.0819494624	-0.407667
H	 0.7542489701	 2.1039450519	 0.1474956738	 0.121956
H	-0.5970537505	 1.8361879709	-0.9560202833	 0.124188
H	-0.8660103768	 1.8202797296	 0.7884080372	 0.12362
H	-0.9150864407	-0.4832035873	-0.1390234786	 0.085817
H	 1.4042976643	-0.662076776	-1.8486743537	 0.093798
H	 3.1161983396	-0.7095219808	 0.5018162396	 0.113067
H	 2.3707257007	 0.9263006187	 0.4004762135	 0.103159
H	 0.757662328	-0.7101677209	 2.1989857636	 0.087057
H	 0.9549257883	-4.6042701795	-0.8864411063	 0.302359
119.4053	168.3618	182.9891	284.9396	315.0362	359.8651	400.1483	475.7941	582.6426	701.3544	717.1254	765.5303	787.0327	801.2982	888.9183	935.828	988.4698	1021.7869	1025.2047	1068.8318	1082.8975	1096.6108	1111.9512	1138.6049	1151.0524	1202.7781	1215.8208	1242.9762	1244.6768	1402.6895	1405.6449	1419.9023	1493.9501	1494.1208	1526.7713	1828.7568	3038.2163	3059.5981	3082.4942	3095.7544	3123.4873	3140.5585	3150.4931	3153.486	3822.2841
CC1C2CC1C2=NO	C[C@H]1[C@H]2C[C@@H]1C2=NO	
InChI=1S/C6H9NO/c1-3-4-2-5(3)6(4)7-8/h3-5,8H,2H2,1H3	InChI=1S/C6H9NO/c1-3-4-2-5(3)6(4)7-8/h3-5,8H,2H2,1H3/t3-,4+,5-
