9
gdb 3836	5.84091	2.97776	1.97227	1.2311	50.46	-0.2756	-0.101	0.1747	570.237	0.054258	-371.449232	-371.443711	-371.442767	-371.479141	19.364	
N	-0.0801241852	 1.312662541	 0.1548702251	-0.469578
C	-0.0442351273	 0.0565119338	-0.0272910463	 0.351682
C	-1.229983873	-0.7701538341	-0.1003446542	 0.042176
N	-1.2013807157	-2.0411142124	-0.2848360401	-0.028624
O	 0.0263116577	-2.6304488188	-0.4180115493	-0.236455
N	 1.2568353625	-1.8547203178	-0.3542793661	 0.078948
N	 1.1986792937	-0.644653864	-0.1773861546	-0.153527
H	 0.8714405685	 1.689890937	 0.1718826836	 0.246503
H	-2.2116518311	-0.3191468746	 0.003127882	 0.168875
49.1709	392.3195	415.0338	431.6954	483.0809	533.6929	665.9816	765.8095	801.4891	897.6313	925.6067	959.1247	1038.5909	1115.3477	1307.1465	1368.4923	1609.0632	1673.9601	1736.9377	3195.7476	3450.7468
N=C1C=NON=N1	[NH]C1=N[N]ON=C1	
InChI=1S/C2H2N4O/c3-2-1-4-7-6-5-2/h1,3H	InChI=1S/C2H2N4O/c3-2-1-4-7-6-5-2/h1,3H
