19
gdb 1312	3.16662	2.52504	2.07045	1.2635	67.09	-0.2523	0.0773	0.3296	763.2153	0.170361	-310.915408	-310.907317	-310.906373	-310.946841	30.74	
C	-0.081748225	 1.5105916034	 0.0479332272	-0.42272
C	-0.0180137352	-0.0192027807	 0.0115933154	 0.315099
C	-1.3962554972	-0.6150155826	-0.2580563739	-0.454542
C	 1.1589749271	-0.5307088037	-0.8830340623	-0.25398
C	 2.0495764271	-0.6444194507	 0.3844431531	-0.270398
C	 0.7526776074	-0.6056480773	 1.2329612826	 0.121736
O	 0.7057622221	 0.1868845349	 2.3978175728	-0.432864
H	 0.8999945423	 1.9583449054	 0.225278949	 0.113697
H	-0.4607352098	 1.8922572325	-0.9068065116	 0.103192
H	-0.7466893321	 1.8559210017	 0.8448039037	 0.123082
H	-1.7985538089	-0.262826001	-1.2151196858	 0.110172
H	-1.3579136065	-1.7092287293	-0.2955452539	 0.10374
H	-2.1078144466	-0.3298276942	 0.5255369151	 0.117668
H	 0.9433824412	-1.506481304	-1.3278674999	 0.094524
H	 1.5008476088	 0.1428211618	-1.6727579091	 0.096286
H	 2.6964340119	-1.5200611286	 0.4804649507	 0.088918
H	 2.6454692737	 0.256996437	 0.5500222662	 0.107202
H	 0.3990924331	-1.6272052966	 1.4411328648	 0.057009
H	 1.2241077767	-0.2484561483	 3.081650226	 0.282179
124.563	202.6403	225.2886	238.6768	253.5254	278.3141	350.363	365.8976	434.7023	535.1429	594.3004	720.6882	782.6205	870.3226	904.4239	945.728	955.968	963.4027	996.9663	1016.7225	1113.5825	1139.8953	1176.4348	1183.5689	1217.7069	1239.7549	1256.3087	1276.2017	1308.5566	1336.8287	1400.0578	1413.5236	1429.8782	1475.6351	1482.1173	1488.7858	1499.6471	1501.5164	1506.4989	2976.2246	3018.9921	3033.8784	3053.2903	3060.5893	3085.7724	3089.0785	3100.1397	3102.3143	3113.4331	3119.7113	3819.6508
CC1(C)CCC1O	CC1(C)CC[C@H]1O	
InChI=1S/C6H12O/c1-6(2)4-3-5(6)7/h5,7H,3-4H2,1-2H3	InChI=1S/C6H12O/c1-6(2)4-3-5(6)7/h5,7H,3-4H2,1-2H3/t5-/m1/s1
