13
gdb 4734	6.93409	1.27722	1.07856	0.6778	72.9	-0.1906	-0.0016	0.189	1012.0655	0.095463	-361.463401	-361.45601	-361.455066	-361.494659	28.009	
O	 0.1002315912	 1.3843416685	-0.1450576048	-0.450947
C	 0.0683098945	 0.0255487147	-0.0375310111	 0.354753
C	-0.0106081465	-0.8247545474	-1.1237322999	-0.179206
N	-0.0208697676	-2.1054777651	-0.6343182361	-0.318552
C	 0.0496212827	-2.0947063404	 0.7386351209	 0.21567
C	 0.1066194566	-0.7623531075	 1.1360859697	-0.41865
C	 0.0556999881	-3.2804409186	 1.4961862732	 0.269582
C	 0.0599813071	-4.3052261728	 2.1319823288	-0.455082
H	 0.1555405488	 1.7592824241	 0.7382630473	 0.298239
H	-0.0586338905	-0.6117099252	-2.177905724	 0.126536
H	-0.072232363	-2.94235699	-1.1878498879	 0.26867
H	 0.1683041476	-0.4177662826	 2.1570565731	 0.099168
H	 0.0644058412	-5.2011923577	 2.7011764308	 0.18982
135.083	148.3791	223.2446	317.3403	382.2627	419.9075	477.7111	511.7267	536.4007	551.8697	630.7858	676.4697	678.0158	714.01	718.6431	785.2374	987.0131	1006.7042	1124.6425	1170.1323	1187.6297	1298.3068	1347.3312	1442.6253	1467.9729	1526.6769	1643.4853	2222.7712	3248.695	3280.8619	3503.6642	3689.8599	3847.7451
OC1=CNC(=C1)C#C	Oc1c[nH]c(c1)C#C	
InChI=1S/C6H5NO/c1-2-5-3-6(8)4-7-5/h1,3-4,7-8H	InChI=1S/C6H5NO/c1-2-5-3-6(8)4-7-5/h1,3-4,7-8H
