15
gdb 3160	4.15408	2.59131	1.89992	1.7005	56.96	-0.2524	0.076	0.3285	700.0347	0.123995	-345.611057	-345.604272	-345.603328	-345.641782	24.784	
C	-0.2864400546	 1.5025368512	 0.0168617649	-0.406904
C	 0.1278138845	 0.0460732768	 0.0060625539	 0.081975
O	 1.3525258783	-0.1859675708	-0.7431960438	-0.297849
C	 1.971756733	-0.9031201762	 0.346793788	-0.150772
C	 0.7891437125	-0.5629557482	 1.2447832933	 0.357229
C	 0.7118742009	-0.2087175922	 2.6593256286	-0.256236
O	 0.1701026489	-1.4423138812	 2.1529893884	-0.25788
H	 0.5046161304	 2.1306615634	 0.4366774238	 0.12045
H	-0.4929329319	 1.8428902004	-1.0024468383	 0.133166
H	-1.1978562872	 1.6365696069	 0.6095272241	 0.121552
H	-0.6849803784	-0.5898123206	-0.3735450652	 0.08906
H	 2.0769985273	-1.9760693259	 0.1396579598	 0.113872
H	 2.948016664	-0.4846292637	 0.6180289486	 0.109943
H	 1.5925870554	-0.3119647528	 3.2919033308	 0.120766
H	-0.024717973	 0.5169427128	 3.0009673733	 0.121626
91.0838	197.1773	222.1362	289.2997	334.9964	407.2203	509.1888	562.8698	778.2935	850.2939	880.6915	890.3262	932.1773	1010.1855	1017.5036	1087.174	1099.3207	1124.0225	1141.9981	1153.2098	1168.7937	1194.7009	1280.4205	1329.4266	1379.9054	1404.08	1452.7122	1486.3343	1492.9868	1515.2483	1544.8352	3002.724	3015.8578	3036.4574	3063.0795	3083.4967	3108.6415	3117.845	3170.9337
CC1OCC11CO1	C[C@H]1OC[C@]21CO2	
InChI=1S/C5H8O2/c1-4-5(2-6-4)3-7-5/h4H,2-3H2,1H3	InChI=1S/C5H8O2/c1-4-5(2-6-4)3-7-5/h4H,2-3H2,1H3/t4-,5-/m1/s1
