16
gdb 589	11.41382	1.64753	1.57691	1.6966	57.14	-0.2621	0.0961	0.3582	804.8416	0.142296	-271.616723	-271.60974	-271.608796	-271.64766	24.439	
C	 0.0660481203	 1.5128400538	 0.0830214536	-0.381917
C	 0.1278046699	-0.0132229535	-0.0137335242	-0.157677
C	 0.5078556005	-0.5098044654	-1.4153588811	-0.201182
C	 0.5708496294	-2.0145909759	-1.4991303817	 0.101958
C	 1.5497519664	-2.7234958815	-2.3315361008	-0.1819
O	 1.7188783321	-2.6413155916	-0.9153174487	-0.237229
H	 1.0341436236	 1.9642657437	-0.1610338566	 0.115784
H	-0.674514877	 1.9254157232	-0.6115322212	 0.112237
H	-0.2067957327	 1.8373743318	 1.0918863383	 0.113611
H	 0.8565484568	-0.4049058688	 0.7055902674	 0.115577
H	-0.8434774315	-0.43997328	 0.2696840509	 0.094181
H	-0.2229533653	-0.1442317688	-2.1502471238	 0.096566
H	 1.4827121	-0.0978094992	-1.7038176152	 0.100336
H	-0.3651881497	-2.5324309585	-1.2764319908	 0.087261
H	 1.3201838714	-3.7150610537	-2.7199750807	 0.111909
H	 2.2646480257	-2.1505335155	-2.9213759254	 0.110483
91.1212	103.1957	175.7182	248.0886	329.9649	404.8155	475.8502	744.8939	792.4208	855.9547	891.6949	900.0397	966.7257	1029.1611	1055.2381	1081.1814	1133.8772	1159.3116	1167.1337	1188.7658	1267.057	1292.256	1305.3745	1331.3428	1388.2096	1414.6363	1449.7325	1472.0228	1493.197	1500.6271	1510.038	1530.4812	3012.7608	3021.6354	3029.4296	3050.5795	3067.2047	3078.5836	3085.992	3097.3458	3102.9321	3164.1391
CCCC1CO1	CCC[C@H]1CO1	
InChI=1S/C5H10O/c1-2-3-5-4-6-5/h5H,2-4H2,1H3	InChI=1S/C5H10O/c1-2-3-5-4-6-5/h5H,2-4H2,1H3/t5-/m0/s1
