15
gdb 1797	4.13941	2.02691	1.71328	1.5296	53.63	-0.2381	0.0649	0.303	762.3898	0.123072	-382.756724	-382.748887	-382.747943	-382.788277	28.819	
O	-0.0915070895	 1.3585643553	-0.308600517	-0.437312
C	 0.0138421121	-0.003937056	 0.1125698229	-0.143541
C	-1.3850574858	-0.5611162266	 0.0670465446	 0.421906
O	-2.2839650663	 0.1529033101	 0.8645353479	-0.478022
C	-1.9057362812	-1.1775187947	-1.2237566649	-0.382412
C	-1.6185957664	-2.0292694154	-0.0015441935	 0.042837
O	-0.4938903256	-2.8618765502	 0.0270709849	-0.424598
H	 0.6983198732	 1.824816587	-0.0217330079	 0.291745
H	 0.6843403783	-0.5809844471	-0.5346564489	 0.101796
H	 0.3912949219	-0.0642664441	 1.1431862817	 0.100538
H	-2.1526034512	 1.0796761419	 0.6250318539	 0.287606
H	-2.9435068487	-0.9975336918	-1.4796439787	 0.1164
H	-1.2167935518	-1.2515099727	-2.0586786618	 0.113301
H	-2.4818329286	-2.3881770754	 0.5584309185	 0.100586
H	-0.6568463703	-3.5963789302	-0.5738799617	 0.289169
103.6608	168.2956	234.0488	255.1561	273.7506	305.5173	402.0756	418.8165	457.8069	474.0824	589.6069	728.8486	840.9501	914.557	928.8851	992.2207	1012.7884	1037.7366	1053.9433	1096.8927	1158.3918	1218.336	1233.2727	1274.1805	1282.8156	1322.8566	1382.5267	1424.4632	1453.3865	1508.956	1520.0922	3003.2452	3058.3176	3109.465	3134.0056	3231.2516	3770.4704	3805.7408	3841.156
OCC1(O)CC1O	OC[C@@]1(O)C[C@H]1O	
InChI=1S/C4H8O3/c5-2-4(7)1-3(4)6/h3,5-7H,1-2H2	InChI=1S/C4H8O3/c5-2-4(7)1-3(4)6/h3,5-7H,1-2H2/t3-,4+/m1/s1
