16
gdb 4462	3.52808	1.77013	1.19126	2.3044	70.03	-0.1627	0.052	0.2147	986.6914	0.130776	-379.949118	-379.940642	-379.939698	-379.981676	31.093	
C	 0.1364948212	 1.4519784227	-0.0435510359	-0.499213
C	-0.0625643276	-0.017214247	 0.0023855051	 0.284979
C	-1.144551792	-0.8329207126	 0.1335861765	 0.157815
N	-2.4888093518	-0.4740378633	 0.3360304408	-0.609929
C	-0.6598419258	-2.191309837	 0.112330707	-0.333229
C	 0.6916857591	-2.0938149661	-0.0209018474	 0.375862
N	 1.7190267494	-3.0291876955	-0.0245553146	-0.596147
O	 1.0841646676	-0.8062935706	-0.0837753399	-0.218135
H	 0.6382250715	 1.8444595741	 0.8513978857	 0.129233
H	 0.7358333742	 1.7550465114	-0.9111982919	 0.126648
H	-0.8307243749	 1.9588123622	-0.1204990892	 0.116349
H	-2.672471449	 0.4931153299	 0.0997625021	 0.2356
H	-3.1229792333	-1.0624024515	-0.1909359465	 0.239409
H	-1.2431815098	-3.0937450631	 0.2039595363	 0.086512
H	 1.4120350784	-3.9439106108	-0.3250855548	 0.252055
H	 2.5149257729	-2.7231392928	-0.5703158432	 0.25219
104.4531	173.2074	177.9411	197.7687	234.1906	257.8683	303.2332	366.6465	496.0459	601.6897	629.3771	642.5253	666.0863	704.8465	733.9474	782.0567	815.4417	951.7844	1037.6653	1054.3223	1061.5211	1110.5575	1193.128	1216.9957	1275.6695	1387.892	1418.9022	1465.1397	1476.8708	1498.8234	1616.4635	1647.4915	1666.3705	1710.1246	3004.9476	3048.6285	3096.762	3253.8679	3523.118	3542.8422	3612.3774	3644.6234
CC1=C(N)C=C(N)O1	Cc1c(N)cc(N)o1	
InChI=1S/C5H8N2O/c1-3-4(6)2-5(7)8-3/h2H,6-7H2,1H3	InChI=1S/C5H8N2O/c1-3-4(6)2-5(7)8-3/h2H,6-7H2,1H3
