13
gdb 678	6.23318	4.54157	3.29214	2.8893	49.31	-0.2391	0.0757	0.3149	447.8562	0.110626	-286.460642	-286.455788	-286.454844	-286.48866	18.366	
C	-0.0332396996	 1.504706301	-0.0248883903	-0.066943
O	 1.0337374985	 1.9562183791	 0.8037966859	-0.252383
C	 2.0501151911	 0.9603224577	 0.8685181355	-0.066943
C	 1.3602564129	-0.3528480308	 0.5666634032	-0.053882
N	 0.1366103667	-0.5418542554	 1.3736632538	-0.324769
C	 0.0374500088	-0.0071967123	-0.0005959299	-0.053882
H	-0.9630295634	 1.9097226118	 0.3876886063	 0.113821
H	 0.0799461864	 1.8625418112	-1.0615484656	 0.087431
H	 2.8419111869	 1.140836272	 0.1228671285	 0.087431
H	 2.4918518653	 1.0069559063	 1.8692484969	 0.113821
H	 1.9362052972	-1.2100725122	 0.2352682871	 0.092532
H	-0.1157322233	-1.5275704543	 1.3614748345	 0.231236
H	-0.4373029274	-0.5898703542	-0.7825645859	 0.092532
208.9336	330.3356	413.6229	664.7664	746.5043	801.426	860.9213	870.945	925.9606	953.1173	971.4745	1006.3729	1086.834	1089.3287	1108.3099	1156.1915	1159.3389	1225.0075	1237.6518	1254.9445	1332.9946	1377.0995	1395.6941	1435.3055	1502.4253	1514.0177	2967.9323	2975.2553	3070.2582	3073.3531	3168.0961	3178.5221	3496.376
C1OCC2NC12	C1OC[C@H]2N[C@@H]12	
InChI=1S/C4H7NO/c1-3-4(5-3)2-6-1/h3-5H,1-2H2	InChI=1S/C4H7NO/c1-3-4(5-3)2-6-1/h3-5H,1-2H2/t3-,4+
