13
gdb 874	6.63826	2.09321	1.60499	0.343	55.88	-0.1749	0.0646	0.2395	725.6234	0.102908	-340.65962	-340.652573	-340.651629	-340.69137	25.469	
N	 0.171685577	 1.4100165866	 0.0866119644	-0.612858
C	-0.0127696508	 0.0090031408	 0.0032520124	 0.229721
C	-1.1032389615	-0.8179725441	-0.1049369873	-0.178313
C	-0.635260222	-2.1708911741	-0.146615373	-0.290834
C	 0.7351941424	-2.109695037	-0.0611094722	 0.36845
O	 1.7133817404	-3.0542075933	-0.0510598598	-0.438655
N	 1.1125784698	-0.8046068919	 0.028897918	-0.289534
H	-0.1947005782	 1.887722903	-0.7299741624	 0.241063
H	-0.2924990811	 1.8037208819	 0.8982677358	 0.241062
H	-2.1330141612	-0.4965674005	-0.150232459	 0.081021
H	-1.230383948	-3.0675259772	-0.2286333278	 0.08135
H	 1.2944994283	-3.9171488611	-0.1207456226	 0.304471
H	 2.0570631049	-0.4674926929	 0.1030382035	 0.263055
24.0519	210.8932	225.0169	313.2206	328.7955	471.1304	473.6277	624.928	631.5207	672.2941	712.4293	728.3939	793.0987	797.8392	1004.4745	1020.6625	1058.2821	1166.7039	1209.1916	1229.8136	1265.1748	1308.3836	1423.651	1529.068	1573.1331	1635.7185	1662.5264	3234.8318	3249.4882	3500.8405	3563.398	3681.5937	3847.3827
NC1=CC=C(O)N1	Nc1ccc(O)[nH]1	
InChI=1S/C4H6N2O/c5-3-1-2-4(7)6-3/h1-2,6-7H,5H2	InChI=1S/C4H6N2O/c5-3-1-2-4(7)6-3/h1-2,6-7H,5H2
