14
gdb 4466	3.51206	1.88497	1.23793	1.6247	60.81	-0.1858	0.0378	0.2235	924.8256	0.107684	-415.9009	-415.893118	-415.892174	-415.932912	28.218	
C	 0.1396220836	 1.5016932619	 0.1086074424	-0.498887
C	-0.0446729434	 0.0347210783	 0.0259566793	 0.269055
C	-1.0905779488	-0.8149438212	-0.1392357263	 0.178399
N	-2.4445079264	-0.5557432001	-0.3451764546	-0.598771
N	-0.6399422628	-2.1370319384	-0.1568136527	-0.426456
C	 0.6387609138	-2.0107459182	-0.0040660172	 0.471261
O	 1.5554433112	-2.97576681	 0.0527131274	-0.401422
O	 1.1052803037	-0.7727321834	 0.1158712873	-0.206727
H	 0.7950256693	 1.8819412841	-0.6849728504	 0.137159
H	-0.828737223	 1.9978074163	-0.0041701579	 0.126843
H	 0.5682651583	 1.8185976042	 1.0678368528	 0.132386
H	-2.7760797173	 0.2762949088	 0.1234173152	 0.244663
H	-3.0097685976	-1.3543496684	-0.0883774578	 0.252544
H	 1.0825505795	-3.8106937838	-0.0544033774	 0.319954
97.9445	173.3659	200.2318	247.6472	259.8152	322.0042	367.2922	435.6566	542.8556	635.9101	642.8123	662.9738	734.3103	765.7108	825.7905	966.4789	1038.8079	1066.2434	1092.627	1175.5232	1220.2062	1281.5357	1397.6427	1430.6775	1466.7948	1493.0897	1515.8348	1635.4942	1659.024	1729.6792	3013.5617	3057.3201	3108.4228	3548.4198	3644.3253	3811.7305
CC1=C(N)N=C(O)O1	Cc1c(N)nc(O)o1	
InChI=1S/C4H6N2O2/c1-2-3(5)6-4(7)8-2/h5H2,1H3,(H,6,7)	InChI=1S/C4H6N2O2/c1-2-3(5)6-4(7)8-2/h5H2,1H3,(H,6,7)
