13
gdb 4305	4.07872	1.99477	1.35072	3.1236	64.24	-0.2585	-0.0693	0.1892	855.1624	0.096244	-394.819257	-394.812413	-394.811469	-394.850643	24.707	
C	-0.00264423	 1.4763428767	-0.0159182612	-0.457051
C	-0.0432144821	-0.0172584504	 0.0033444144	 0.347177
N	-1.1679100874	-0.6312991904	-0.1593308791	-0.279655
C	-1.1893476364	-2.0075214476	-0.1392259153	 0.431088
N	-2.2286818849	-2.7031907039	-0.2873917573	-0.51124
O	 0.0681665216	-2.6670075045	 0.0655345241	-0.208037
C	 1.1531178858	-1.9117217062	 0.2198488092	 0.150371
N	 1.1992910897	-0.6343000204	 0.2052142418	-0.312755
H	 0.6770978245	 1.8151369402	-0.8052021082	 0.150979
H	-0.9991878504	 1.8855062498	-0.1760702906	 0.151016
H	 0.4106135854	 1.8447762475	 0.9292074779	 0.150975
H	-2.0098892188	-3.6971182269	-0.2368024252	 0.232799
H	 2.0477004029	-2.5131142538	 0.3679352196	 0.154334
85.2585	140.6197	191.3961	321.1364	394.8864	494.7148	531.5397	599.4895	633.3327	728.4251	778.3189	821.649	857.7161	940.1212	991.0855	992.8817	1064.8305	1108.1928	1151.9065	1284.8462	1312.7442	1401.9341	1417.6214	1461.7227	1470.4665	1600.5979	1696.9248	1771.7657	3045.2619	3100.7202	3169.1227	3170.9175	3514.2024
CC1=NC(=N)OC=N1	C[C@@H]1N=C([NH])OC=N1	
InChI=1S/C4H5N3O/c1-3-6-2-8-4(5)7-3/h2,5H,1H3	InChI=1S/C4H6N3O/c1-3-6-2-8-4(5)7-3/h2-3,5H,1H3/t3-/m0/s1
