14
gdb 4722	7.00799	1.27396	1.08524	1.3227	76.71	-0.213	-0.0176	0.1954	1049.662	0.106426	-345.408168	-345.400716	-345.399772	-345.439814	27.52	
C	 0.0013741368	 1.5357625332	-0.0417402216	-0.504666
C	 0.0007313246	 0.0394351505	 0.0114864667	 0.275104
C	-0.0618477913	-0.8263923988	-1.0395349664	-0.114686
O	-0.0412146612	-2.116549748	-0.6246886798	-0.175735
C	 0.0375167892	-2.0900114094	 0.7431047325	 0.244222
C	 0.0655649644	-0.7918641665	 1.174726769	-0.398285
C	 0.0737702081	-3.3175998918	 1.4266025161	 0.253388
C	 0.1055641685	-4.3628493823	 2.0246935075	-0.420655
H	 0.9109321326	 1.9521559798	 0.4051523401	 0.134171
H	-0.0570048055	 1.8936550069	-1.0732387978	 0.127213
H	-0.8489511753	 1.9565101277	 0.5062667391	 0.134172
H	-0.122807757	-0.6794983711	-2.1060526721	 0.134711
H	 0.1255337997	-0.4731334895	 2.2037568067	 0.116459
H	 0.1335687563	-5.2842395907	 2.5515314398	 0.194588
119.7638	131.5021	147.326	282.6024	312.4042	457.416	531.559	536.3833	542.4656	617.2068	685.8248	686.588	701.5786	763.5291	833.2551	958.9963	990.3261	1018.1282	1065.7483	1162.2681	1175.1481	1224.944	1301.0856	1390.726	1421.8676	1483.0847	1498.4093	1540.32	1642.2004	2231.011	3032.3623	3084.7229	3113.1603	3258.1441	3269.8097	3503.7494
CC1=COC(=C1)C#C	Cc1coc(c1)C#C	
InChI=1S/C7H6O/c1-3-7-4-6(2)5-8-7/h1,4-5H,2H3	InChI=1S/C7H6O/c1-3-7-4-6(2)5-8-7/h1,4-5H,2H3
