19
gdb 4033	3.3948	1.18896	0.97781	1.5359	70.68	-0.2433	0.0134	0.2567	1220.9993	0.162312	-402.16002	-402.149955	-402.149011	-402.195041	35.636	
C	-0.8273014372	 0.9303718949	 0.06329485	-0.408532
C	 0.1422826581	-0.2526210466	-0.1274412471	-0.063415
C	 1.1536282937	 0.026031391	-1.2518128109	-0.080283
O	 0.5145115603	 0.198563177	-2.5106860139	-0.427073
C	 0.801810801	-0.6192678407	 1.1844915097	 0.353292
C	-0.0259405578	-1.2378981194	 2.2813474447	-0.470255
N	 2.051629733	-0.3770337235	 1.2989358916	-0.169357
O	 2.5399359171	-0.7484740771	 2.5637236861	-0.405638
H	-0.2800006129	 1.8364060758	 0.3470795006	 0.121664
H	-1.3745532133	 1.1259814343	-0.8637812632	 0.114955
H	-1.5679167139	 0.7288799005	 0.8423808394	 0.121904
H	-0.4545565385	-1.120055597	-0.4445451652	 0.091572
H	 1.7788214982	 0.8905849485	-0.9940863464	 0.102242
H	 1.8232454326	-0.8308280975	-1.3619704463	 0.116982
H	 0.165936515	 1.0932969225	-2.5492321142	 0.283622
H	-0.0497948179	-0.5880246321	 3.162360009	 0.146259
H	-1.0497246657	-1.4260385232	 1.9526709093	 0.118648
H	 0.4254821295	-2.180668734	 2.6055474197	 0.148953
H	 3.4744515886	-0.5283399034	 2.4911953474	 0.304459
55.321	102.9712	108.6406	167.2493	199.5014	224.0087	290.577	301.7758	308.7644	375.4436	386.1056	435.4735	470.3008	570.9798	663.0205	798.8161	878.1673	912.0132	965.564	1016.6801	1025.1851	1061.2482	1078.8601	1097.849	1129.347	1201.1105	1252.5757	1326.3807	1342.062	1383.4972	1395.4491	1400.8545	1403.1494	1415.7364	1474.1754	1482.3175	1491.5716	1502.2967	1508.2724	1725.4055	3004.7678	3025.5187	3033.1939	3043.7788	3099.196	3101.5186	3104.7158	3110.3001	3134.4455	3822.3348	3838.2459
CC(CO)C(C)=NO	C[C@@H](CO)C(=NO)C	
InChI=1S/C5H11NO2/c1-4(3-7)5(2)6-8/h4,7-8H,3H2,1-2H3	InChI=1S/C5H11NO2/c1-4(3-7)5(2)6-8/h4,7-8H,3H2,1-2H3/t4-/m0/s1
