19
gdb 4484	3.44773	1.65693	1.14294	1.7494	81.14	-0.1812	0.0517	0.233	1086.5324	0.164733	-327.985786	-327.976512	-327.975568	-328.020156	32.913	
C	 0.0470953622	 1.4936280739	 0.0882018147	-0.503485
C	 0.0342796109	 0.006597996	-0.0423022807	 0.315059
C	 0.015306721	-0.8072712781	-1.1492676123	-0.313451
C	 0.009842259	-2.1692773082	-0.7115967172	 0.218757
C	-0.0095229295	-3.374955504	-1.6033768454	-0.505895
C	 0.0258522565	-2.147707201	 0.668385999	 0.209162
C	 0.0290989833	-3.2433594164	 1.6832953923	-0.508719
N	 0.0405084039	-0.8222311161	 1.0561072972	-0.347307
H	 0.9392164875	 1.8582923432	 0.6138974203	 0.121697
H	 0.0394624575	 1.9529306208	-0.9029672284	 0.13543
H	-0.8273249373	 1.8717642048	 0.6337475453	 0.121706
H	 0.0061291094	-0.4662866061	-2.1747493804	 0.079288
H	 0.8637050608	-3.4032103863	-2.2665763238	 0.120165
H	-0.0109230569	-4.3065981552	-1.0301600601	 0.113074
H	-0.8971427769	-3.3889029495	-2.2476438953	 0.12016
H	 0.9204113554	-3.2139332061	 2.3239464925	 0.121311
H	-0.846429756	-3.2000151993	 2.3445878733	 0.121301
H	 0.015680334	-4.2184858342	 1.1920569461	 0.135236
H	 0.0538506452	-0.5080939581	 2.0112114029	 0.246511
42.4611	98.4289	106.8777	168.9372	218.045	254.2192	275.1923	318.4487	440.2191	443.2651	584.4902	627.8548	644.8974	654.9353	776.5458	791.945	968.1098	989.4374	1020.6223	1028.4625	1052.2505	1062.2971	1065.3171	1164.548	1177.9419	1250.4812	1314.3721	1404.2851	1415.4322	1426.4191	1432.002	1475.5665	1479.0255	1479.9116	1483.6254	1494.5655	1499.1976	1507.4762	1567.2338	1656.4347	3008.2194	3010.9661	3019.5289	3047.7888	3052.0132	3062.9621	3100.8574	3120.3211	3125.6055	3230.3671	3669.1268
CC1=CC(C)=C(C)N1	Cc1cc(C)c(C)[nH]1	
InChI=1S/C7H11N/c1-5-4-6(2)8-7(5)3/h4,8H,1-3H3	InChI=1S/C7H11N/c1-5-4-6(2)8-7(5)3/h4,8H,1-3H3
