13
gdb 2463	6.64049	2.55135	2.12222	1.5272	54.01	-0.2181	0.0534	0.2715	615.3852	0.104048	-340.637231	-340.631628	-340.630684	-340.666236	22.139	
N	 0.0496122007	 1.3110655645	-0.1791380955	-0.575457
C	-0.0525938339	-0.0461327806	-0.0380220227	 0.455767
N	-1.1275710497	-0.7394237508	 0.0149874961	-0.343906
C	-0.698400076	-2.1167882657	 0.0166555075	-0.011439
C	 0.0695641673	-2.5954328105	-1.2031776558	-0.320302
C	 0.8165588425	-2.0784708866	-0.005154938	 0.059766
O	 1.1500225575	-0.6968009082	-0.0146178967	-0.244547
H	 0.8883893449	 1.7179891308	 0.2069301938	 0.262935
H	-0.7999715737	 1.8043531136	 0.0491279542	 0.269089
H	-1.2895195702	-2.8146256338	 0.5976488473	 0.096989
H	 0.1226661661	-3.6668300467	-1.3657051559	 0.116446
H	 0.0355586937	-1.9879850444	-2.1016472224	 0.125883
H	 1.5112380007	-2.6737087215	 0.5723473681	 0.108777
198.8392	349.0972	363.8699	441.3034	481.706	573.1513	697.0851	741.6522	748.7719	776.7946	805.7901	917.5584	950.6431	976.6551	1013.6652	1053.2707	1081.4324	1087.5803	1134.4077	1188.0536	1197.7914	1293.5926	1360.834	1424.2819	1459.471	1614.8076	1733.9013	3128.0779	3178.1356	3201.1775	3222.9352	3581.2503	3694.2942
NC1=NC2CC2O1	NC1=N[C@H]2C[C@H]2O1	
InChI=1S/C4H6N2O/c5-4-6-2-1-3(2)7-4/h2-3H,1H2,(H2,5,6)	InChI=1S/C4H6N2O/c5-4-6-2-1-3(2)7-4/h2-3H,1H2,(H2,5,6)/t2-,3+/m0/s1
