15
gdb 3350	5.60782	2.72506	2.0118	1.5291	62.88	-0.2364	0.0068	0.2431	650.6024	0.126944	-308.482454	-308.476776	-308.475832	-308.511729	22.11	
C	-0.0517413502	 1.447320776	 0.0739450946	-0.157718
O	 1.4036797785	 1.4886267534	-0.0524253639	-0.307056
C	 1.4038164999	 0.1840502341	-0.7369533387	 0.118315
C	 2.1608603704	-1.0352141186	-0.1905227501	-0.250185
C	 1.0203427997	-2.1055550595	-0.0713672573	-0.243343
C	-0.2208986994	-1.2513144876	 0.1969905141	-0.199377
C	 0.0068365367	-0.0234894907	-0.251859632	 0.201746
H	-0.3998756789	 1.7274002288	 1.0737241774	 0.119259
H	-0.5293276496	 2.0917355544	-0.6762241012	 0.106757
H	 1.5556611561	 0.3447218739	-1.8130949471	 0.077149
H	 2.9999464189	-1.3620152233	-0.8107932083	 0.095804
H	 2.5394049662	-0.7951966895	 0.8080487151	 0.119608
H	 0.9343547121	-2.7023344436	-0.989582303	 0.110601
H	 1.2041335424	-2.8155260332	 0.7416026626	 0.108772
H	-1.0715485027	-1.6027369746	 0.7686338977	 0.099668
162.6281	254.8449	331.8728	396.3941	587.9004	650.6076	751.418	816.0534	850.9731	867.6356	899.3887	907.5948	949.8748	961.8569	1003.5447	1046.8444	1065.1194	1111.6084	1140.8602	1159.0655	1207.4526	1238.9375	1271.0871	1289.0691	1319.0557	1345.0534	1359.5595	1478.4208	1493.948	1510.2235	1745.6764	3004.6028	3012.5224	3016.4787	3055.2153	3072.2265	3073.0198	3109.7772	3203.6099
C1OC2CCC=C12	C1O[C@H]2CC[CH][C]12	
InChI=1S/C6H8O/c1-2-5-4-7-6(5)3-1/h2,6H,1,3-4H2	InChI=1S/C6H8O/c1-2-5-4-7-6(5)3-1/h2,6H,1,3-4H2/t6-/m0/s1
