14
gdb 2382	4.43095	1.97361	1.94156	2.5222	53.93	-0.2483	0.0147	0.263	728.9768	0.112699	-361.731511	-361.724219	-361.723275	-361.762752	26.351	
C	 1.2622001257	 0.9584497817	-0.5766976052	-0.428838
C	 0.1118676621	 0.1552878258	-0.0310070059	 0.096092
O	 0.400805178	-1.0935553452	 0.61367876	-0.26507
C	-0.1696150656	-0.0451019039	 1.4059140738	-0.045998
C	 0.6765032533	 0.5511649624	 2.5076766958	 0.357758
N	 1.9380103035	 0.0450592	 2.5775511833	-0.517609
O	 0.2302119989	 1.4078450621	 3.2449246382	-0.359552
H	 2.0796466311	 1.0324755718	 0.1423641868	 0.137801
H	 1.6409566792	 0.495899266	-1.494004404	 0.131184
H	 0.9231127341	 1.9691992706	-0.8260761719	 0.134671
H	-0.7567511817	 0.0977252995	-0.6892797899	 0.103446
H	-1.2044887742	-0.1923066796	 1.710288345	 0.119468
H	 2.1717118128	-0.7639788201	 2.025576874	 0.272458
H	 2.5235754928	 0.3172101887	 3.3497463299	 0.264189
85.4535	178.252	197.0561	252.6837	340.6247	392.7451	436.5182	482.893	545.895	643.5842	739.9569	779.9873	838.1133	902.2759	985.2651	1037.4319	1083.026	1096.3711	1161.3775	1168.225	1278.8764	1339.3226	1394.6799	1412.5191	1451.8234	1492.3876	1502.0084	1595.2223	1806.4454	3043.4427	3095.6457	3105.8064	3135.8217	3143.9705	3591.9744	3731.2691
CC1OC1C(N)=O	C[C@H]1O[C@H]1C(=O)N	
InChI=1S/C4H7NO2/c1-2-3(7-2)4(5)6/h2-3H,1H3,(H2,5,6)	InChI=1S/C4H7NO2/c1-2-3(7-2)4(5)6/h2-3H,1H3,(H2,5,6)/t2-,3-/m1/s1
