14
gdb 4591	5.64257	1.48246	1.17401	0.0009	67.59	-0.1982	-0.0021	0.1961	945.5063	0.108549	-382.607823	-382.601075	-382.60013	-382.638332	26.67	
O	 0.0363267027	 1.3755498953	 0.1480019825	-0.450874
C	 0.0541537923	 0.011151059	 0.0423081014	 0.37592
C	 0.0562342412	-0.6542487093	-1.1843526122	-0.240462
C	 0.0747365231	-2.0440214901	-1.2338508002	-0.167908
C	 0.0914384089	-2.7858716079	-0.0542688207	 0.37592
O	 0.109323216	-4.1502697843	-0.159958198	-0.450873
C	 0.0893735263	-2.1204704274	 1.1723939206	-0.240461
C	 0.0708415396	-0.7307004346	 1.2218925028	-0.167908
H	 0.0259042845	 1.7560545361	-0.7357724759	 0.294083
H	 0.0433122241	-0.0844852317	-2.1100434484	 0.084969
H	 0.076439636	-2.5670403314	-2.1832285004	 0.104271
H	 0.1191845381	-4.5307781348	 0.7238209575	 0.294083
H	 0.1023182464	-2.69023678	 2.0980829147	 0.084969
H	 0.0691180707	-0.2076782987	 2.1712685764	 0.104271
157.65	323.3346	325.836	342.7768	372.0649	424.0386	446.0946	469.6409	530.0404	656.767	721.1184	766.2656	812.853	835.5019	864.4656	916.7325	925.0406	1019.7823	1113.8972	1182.6457	1188.6847	1201.6939	1279.5662	1307.4159	1362.645	1367.0783	1490.1827	1554.225	1644.6514	1670.4009	3155.5727	3157.2535	3200.0776	3201.9247	3829.263	3830.4188
OC1=CC=C(O)C=C1	Oc1ccc(O)cc1	
InChI=1S/C6H6O2/c7-5-1-2-6(8)4-3-5/h1-4,7-8H	InChI=1S/C6H6O2/c7-5-1-2-6(8)4-3-5/h1-4,7-8H
