14
gdb 1606	4.35423	2.2359	1.5108	3.2371	62.31	-0.2403	-0.0406	0.1997	783.7709	0.113008	-320.767064	-320.759035	-320.758091	-320.799533	26.943	
C	 0.0090632744	 1.4407231772	 0.0083178613	-0.333856
N	 0.1034515909	-0.0092242503	-0.017348837	-0.082416
C	-0.0210486778	-0.6971704353	 1.2545652246	-0.353198
C	-0.0442938515	-0.6385487531	-1.2212386486	 0.314213
N	-0.2231592742	 0.0002761889	-2.3213315942	-0.534766
C	 0.047896385	-2.0922937751	-1.1987252308	 0.226234
N	 0.1063562602	-3.2455272247	-1.2686116695	-0.339684
H	 0.5750156769	 1.8165851669	 0.8651298026	 0.125456
H	 0.4195690022	 1.844946505	-0.9166065503	 0.170007
H	-1.0322259617	 1.7802841671	 0.0968966109	 0.130793
H	-1.0120437606	-0.5425651103	 1.7043960651	 0.131337
H	 0.135140494	-1.7687348311	 1.1262643403	 0.169315
H	 0.7332836796	-0.3200193094	 1.9530228061	 0.136412
H	-0.2381544874	-0.6357053758	-3.1139404405	 0.240151
83.5501	104.8892	130.6417	178.5541	209.7644	342.4172	351.8747	406.8315	514.0249	598.5493	720.5073	739.1063	798.753	962.2758	1087.3295	1107.3382	1128.8744	1175.1487	1247.9266	1316.6073	1437.7148	1447.7443	1473.0393	1480.9721	1489.0492	1506.0084	1530.8412	1669.7199	2342.6775	3004.3812	3014.2158	3072.9751	3090.0759	3145.9734	3157.9174	3536.3823
CN(C)C(=N)C#N	CN(C)C(=N)C#N	
InChI=1S/C4H7N3/c1-7(2)4(6)3-5/h6H,1-2H3	InChI=1S/C4H7N3/c1-7(2)4(6)3-5/h6H,1-2H3
