19
gdb 1569	4.71846	1.34793	1.11325	1.8129	64.79	-0.2568	0.0729	0.3297	1100.4745	0.169193	-348.045292	-348.03605	-348.035106	-348.079197	31.975	
C	-0.2808252585	 1.3772600411	-0.3441595187	-0.381826
C	-0.0826756534	-0.1277675008	-0.5367265792	-0.182128
C	 1.2870975953	-0.484291303	-1.1179370058	 0.10893
O	 2.3605272319	-0.0587854877	-0.2830247155	-0.432311
C	 1.4309724999	-1.9801191915	-1.4088960821	-0.074357
O	 0.4662472996	-2.3600922595	-2.363747789	-0.231007
C	 0.5277949326	-3.7257483219	-2.6973661274	-0.223608
H	 0.50878839	 1.7961301604	 0.2859200604	 0.122896
H	-0.2502710235	 1.9025032556	-1.3050926967	 0.116185
H	-1.2458214375	 1.59415669	 0.1236283084	 0.108345
H	-0.1959161131	-0.6492149795	 0.4266846282	 0.076854
H	-0.8506857853	-0.5404885449	-1.1987734627	 0.118866
H	 1.4305579624	 0.0575005558	-2.0607952883	 0.096168
H	 2.2177392257	-0.4388331353	 0.5913012977	 0.277393
H	 2.4510526073	-2.1782471542	-1.7746721499	 0.094608
H	 1.2997359646	-2.5565554544	-0.4731861657	 0.068932
H	 1.5048365555	-3.9972047064	-3.127329272	 0.105648
H	 0.3498876612	-4.3687262251	-1.8205635576	 0.10327
H	-0.2506078746	-3.9178774386	-3.4398505442	 0.127142
79.6251	93.1853	112.994	179.1547	224.2616	232.008	252.4883	289.5742	344.4992	411.6601	479.4846	545.0278	777.1219	832.1908	980.1662	986.0316	1001.6799	1045.6663	1085.3143	1124.5043	1155.7621	1170.6346	1185.8276	1224.7887	1242.9844	1258.3149	1327.5792	1331.0666	1387.1952	1404.2442	1411.2002	1423.1542	1480.3496	1485.466	1485.6471	1496.2717	1502.1427	1509.2894	1524.7822	2924.6354	2969.9285	2991.5567	2992.8655	3014.1638	3036.8668	3048.018	3079.5089	3102.2819	3113.4875	3117.5645	3792.8958
CCC(O)COC	CC[C@@H](O)COC	
InChI=1S/C5H12O2/c1-3-5(6)4-7-2/h5-6H,3-4H2,1-2H3	InChI=1S/C5H12O2/c1-3-5(6)4-7-2/h5-6H,3-4H2,1-2H3/t5-/m1/s1
