19
gdb 1717	3.87176	2.11158	1.84366	1.3245	67.08	-0.2629	0.0738	0.3367	798.4342	0.171027	-310.908453	-310.90048	-310.899536	-310.940089	29.89	
C	-0.3120658104	 1.6725423027	 0.0260031337	-0.458943
C	 0.031381543	 0.1869339396	 0.0246322546	 0.361937
C	-1.2168391156	-0.6617347399	-0.2026790924	-0.117621
O	-1.7520511669	-0.346584226	-1.4812411579	-0.425848
C	 1.2052729804	-0.2627424835	-0.9035500322	-0.242786
C	 1.7880720805	-1.104538149	 0.2638803496	-0.209973
C	 0.8463826866	-0.3515005627	 1.2430807677	-0.266501
H	 0.5868927475	 2.2818248658	 0.1660168493	 0.102453
H	-0.782485315	 1.9620487061	-0.9178970219	 0.132508
H	-1.0100057428	 1.9149021606	 0.8371653904	 0.103747
H	-0.9583827854	-1.7310843306	-0.1394725178	 0.079206
H	-1.9474055841	-0.4530180187	 0.5971513074	 0.080557
H	-2.5341947244	-0.8869123304	-1.6235567748	 0.286706
H	 0.9207843782	-0.7870466818	-1.8183920678	 0.104065
H	 1.8525389611	 0.5764977834	-1.1734067666	 0.092148
H	 1.5442670278	-2.1669884281	 0.1807318587	 0.099557
H	 2.8612049818	-1.0190145272	 0.4491466648	 0.094633
H	 1.3557596731	 0.4573416839	 1.7746813877	 0.095781
H	 0.2995940246	-0.9508707542	 1.9784152973	 0.088374
112.6023	145.1778	217.6362	234.5407	244.0736	311.8498	353.7998	374.8117	483.8006	634.813	717.2778	784.8107	860.5802	892.0584	909.511	942.187	963.0994	983.3409	1006.5517	1050.998	1084.8209	1148.0076	1195.6879	1204.1764	1212.976	1251.0425	1253.9533	1265.4401	1280.0892	1306.8802	1337.1354	1403.6654	1453.7734	1475.4657	1483.8784	1489.9735	1499.273	1507.9034	1519.1723	2954.1287	2986.0379	3022.8966	3042.4368	3057.2206	3063.2491	3085.6415	3088.9614	3105.2644	3114.0275	3120.2278	3835.0787
CC1(CO)CCC1	CC1(CO)CCC1	
InChI=1S/C6H12O/c1-6(5-7)3-2-4-6/h7H,2-5H2,1H3	InChI=1S/C6H12O/c1-6(5-7)3-2-4-6/h7H,2-5H2,1H3
