13
gdb 4646	6.48989	1.33668	1.11612	7.5782	67.88	-0.2429	-0.0154	0.2275	998.4585	0.097363	-357.709319	-357.702208	-357.701264	-357.740992	25.368	
C	-0.0382636067	 1.4823953516	 0.0188533081	-0.503881
C	-0.0005911597	-0.0076848156	-0.0274997861	 0.345682
N	-0.0352105923	-0.7463546249	-1.1106669431	-0.33082
C	 0.0228357122	-2.0566098561	-0.6710316424	 0.17185
C	 0.09394786	-2.1023713385	 0.7015328343	-0.166047
N	 0.0772155271	-0.7923652619	 1.0975479328	-0.26913
C	 0.0083965552	-3.1664592994	-1.5565005869	 0.212922
N	-0.0019084545	-4.0865543457	-2.2590787095	-0.343352
H	 0.8642369199	 1.8961036789	 0.4823838225	 0.140435
H	-0.1073116293	 1.8590876681	-1.0018282978	 0.169919
H	-0.9022409215	 1.8482954805	 0.5846136788	 0.140072
H	 0.1516391612	-2.9236124063	 1.3953350892	 0.157383
H	 0.1160431483	-0.4665723106	 2.0495990001	 0.274968
81.3018	148.0231	156.4527	273.6917	345.2471	512.5895	541.3929	567.9968	581.7192	670.7341	715.9873	717.3345	780.2371	967.2387	998.3179	1049.2528	1064.4088	1118.0274	1237.8348	1289.8607	1371.1781	1414.253	1421.4201	1482.268	1490.8045	1564.8743	1597.7387	2352.1715	3036.4862	3088.8898	3156.2887	3286.868	3656.4712
CC1=NC(=CN1)C#N	Cc1nc(c[nH]1)C#N	
InChI=1S/C5H5N3/c1-4-7-3-5(2-6)8-4/h3H,1H3,(H,7,8)	InChI=1S/C5H5N3/c1-4-7-3-5(2-6)8-4/h3H,1H3,(H,7,8)
