15
gdb 4857	4.8242	1.49676	1.18811	2.6229	64.73	-0.2139	0.0161	0.23	998.519	0.118354	-399.827946	-399.82001	-399.819066	-399.861098	27.412	
C	-0.0925436031	 1.3950543758	-0.1095628732	-0.254481
O	 0.5056811397	 0.1136131791	 0.1195635264	-0.266189
C	 0.8037123057	-0.5951196295	-0.9688615849	 0.384391
C	 0.6403758016	-1.8978028933	-1.2949765665	-0.228258
N	 1.2409442111	-2.1247349292	-2.5320950629	-0.294091
C	 1.7160051113	-0.9787854321	-2.8939927206	 0.388476
C	 2.4378373742	-0.6190731655	-4.1408589183	-0.485409
O	 1.4942970045	 0.0194048196	-1.9816030735	-0.220584
H	 0.5909576022	 2.0561864667	-0.6500340834	 0.141679
H	-1.0254614975	 1.2898466881	-0.6752535524	 0.129281
H	-0.3033378051	 1.8090906353	 0.8768902899	 0.141877
H	 0.1483508965	-2.6748507771	-0.7350715358	 0.122721
H	 1.8932870877	 0.1409956486	-4.7116376534	 0.140605
H	 3.4334547204	-0.2176922581	-3.9239685818	 0.142822
H	 2.5416461708	-1.5150051981	-4.7536130895	 0.15716
44.1187	121.7576	146.9538	170.1127	233.1807	317.9466	397.7347	498.4866	620.9382	685.4187	697.4664	735.566	819.3854	965.5313	967.8272	1018.0959	1057.5486	1065.2591	1137.9602	1174.4643	1198.7762	1241.9068	1293.0777	1348.6338	1412.9883	1472.3517	1475.0878	1483.7758	1487.4979	1503.6724	1633.7827	1677.6681	3028.4023	3038.9729	3091.339	3104.3759	3150.2464	3154.3355	3278.6354
COC1=CN=C(C)O1	COc1cnc(C)o1	
InChI=1S/C5H7NO2/c1-4-6-3-5(7-2)8-4/h3H,1-2H3	InChI=1S/C5H7NO2/c1-4-6-3-5(7-2)8-4/h3H,1-2H3
