12
gdb 1936	8.14965	1.67762	1.58511	2.4327	58.39	-0.2697	0.0067	0.2764	762.1666	0.089386	-323.336196	-323.329782	-323.328838	-323.366608	23.417	
N	 0.0450091224	 1.1039253269	 0.5464712083	-0.533141
C	-0.0269118858	-0.0308239883	 0.0242384968	 0.44459
C	-1.1499402886	-1.0013653609	-0.2680307536	-0.367765
C	-0.0202842607	-1.8730454489	-0.8817549447	-0.049692
O	 0.9610847441	-0.8391193756	-0.5085481744	-0.251949
C	 0.2496815892	-3.1585598661	-0.2743032501	 0.33914
C	 0.4549298381	-4.2322112102	 0.2240642051	-0.44783
H	 1.0061472403	 1.4485112492	 0.5651966652	 0.232522
H	-1.6320771322	-1.4237694283	 0.613475812	 0.151816
H	-1.9026402398	-0.6429355504	-0.9709780994	 0.144745
H	-0.0592350277	-1.9546146817	-1.9718315429	 0.125297
H	 0.6435167206	-5.1805014057	 0.6645288878	 0.212268
82.7172	173.7426	244.576	421.2975	483.2277	501.525	546.178	632.4575	682.565	727.2806	801.7528	864.3988	923.0795	951.2892	1015.4094	1022.3966	1069.4484	1127.7135	1214.6921	1233.3534	1304.6967	1363.664	1461.9741	1835.1512	2242.6213	3069.5308	3098.5561	3158.4582	3481.4505	3500.7712
N=C1CC(O1)C#C	[NH][C]1C[C@@H](O1)C#C	
InChI=1S/C5H5NO/c1-2-4-3-5(6)7-4/h1,4,6H,3H2	InChI=1S/C5H5NO/c1-2-4-3-5(6)7-4/h1,4,6H,3H2/t4-/m0/s1
