17
gdb 3997	3.21675	1.54542	1.34371	0.9421	68.25	-0.2486	0.0004	0.249	983.7517	0.139515	-400.947904	-400.939105	-400.938161	-400.981336	32.281	
C	-0.1542687598	 1.5409654377	 0.1675667955	-0.437596
C	 0.0055959701	 0.029574091	 0.0186274488	 0.320989
O	-1.2421435187	-0.6348255731	 0.1028534304	-0.468199
C	 0.8121637734	-0.4390845059	-1.2350333956	-0.256489
C	 2.0031074372	-0.8767462777	-0.3224375861	-0.329407
C	 1.1223797155	-0.5767957208	 0.869825403	 0.374536
N	 1.1281765174	-0.7874072324	 2.1166322069	-0.251316
O	 2.307069169	-1.4349763062	 2.5273787263	-0.390023
H	 0.8024157638	 2.059917977	 0.0496511698	 0.115884
H	-0.8520538354	 1.9130094464	-0.5889092944	 0.124896
H	-0.5477875521	 1.7870567247	 1.1596981326	 0.119757
H	-1.5285378904	-0.5950719703	 1.0224274395	 0.284885
H	 0.3130318081	-1.2771461306	-1.7224658962	 0.123592
H	 1.0295053799	 0.3362022844	-1.9716453658	 0.103002
H	 2.3328397316	-1.9152794322	-0.4062801514	 0.132629
H	 2.8875034167	-0.2350605743	-0.3839048698	 0.126655
H	 2.1627802236	-1.5420257577	 3.4738590765	 0.306203
47.3438	123.6941	165.7324	239.0071	263.2145	309.1106	338.8105	350.6344	391.1259	450.8422	517.8436	590.6002	634.6685	751.6958	783.0727	890.8534	920.0328	940.3389	968.5856	983.6484	1069.3262	1110.6303	1116.8553	1188.3366	1203.0697	1235.4631	1245.2365	1290.1111	1362.2183	1400.0123	1404.6054	1457.5266	1478.7409	1488.5957	1489.5503	1782.6322	3030.9928	3058.3628	3082.8145	3102.8635	3104.4924	3112.9658	3145.7509	3803.5016	3814.4648
CC1(O)CCC1=NO	C[C@@]1(O)CCC1=NO	
InChI=1S/C5H9NO2/c1-5(7)3-2-4(5)6-8/h7-8H,2-3H2,1H3	InChI=1S/C5H9NO2/c1-5(7)3-2-4(5)6-8/h7-8H,2-3H2,1H3/t5-/m1/s1
