17
gdb 619	5.66502	2.6546	2.10535	1.2559	60.65	-0.22	0.0865	0.3065	665.4811	0.154112	-251.726162	-251.719021	-251.718077	-251.756782	25.815	
C	-0.2253794906	 1.4368804688	-0.0171776608	-0.376171
C	 0.3137514044	 0.0095902727	 0.1423007094	-0.202523
C	 0.8128931597	-0.5829409361	-1.1611948912	 0.042973
C	 0.8524352572	-2.0566143629	-1.3855166309	-0.263292
N	-0.0506678533	-1.2162628957	-2.1637117387	-0.076625
C	-1.4775054946	-1.3594787569	-1.92246485	-0.3119
H	 0.5375611939	 2.0996862996	-0.4398416374	 0.117662
H	-1.0910807014	 1.463153855	-0.6863737794	 0.122125
H	-0.532911512	 1.8537950352	 0.9468099764	 0.112041
H	 1.1523085373	 0.0144007358	 0.8508670861	 0.101939
H	-0.4510416611	-0.6328805506	 0.5910730009	 0.097997
H	 1.6014238596	 0.0127735641	-1.6235058641	 0.083817
H	 1.6681837058	-2.5244304777	-1.9315453606	 0.110172
H	 0.41681499	-2.6807245522	-0.6041456886	 0.099793
H	-1.7518133401	-1.5958578546	-0.8824257	 0.098207
H	-1.9915288767	-0.4369196429	-2.2120654931	 0.121443
H	-1.8565648381	-2.1678082418	-2.5565389379	 0.122341
91.8417	177.253	213.8312	236.5765	297.364	360.4491	438.0113	517.5759	735.0249	746.3257	818.1243	907.0347	957.6328	1022.0902	1042.2594	1077.8272	1109.105	1132.6322	1137.579	1165.8217	1201.0188	1207.132	1287.3106	1338.723	1340.5356	1409.2286	1428.4269	1449.4891	1479.2833	1489.534	1499.4603	1504.2778	1508.1461	1515.4746	2979.2458	3025.8114	3034.1442	3059.5127	3065.4975	3077.5092	3090.6145	3095.8583	3104.0095	3108.4725	3164.2703
CCC1CN1C	CC[C@H]1CN1C	
InChI=1S/C5H11N/c1-3-5-4-6(5)2/h5H,3-4H2,1-2H3	InChI=1S/C5H11N/c1-3-5-4-6(5)2/h5H,3-4H2,1-2H3/t5-,6?/m0/s1
