8
gdb 724	6.76114	6.45723	3.30285	2.5272	40.74	-0.2631	-0.1005	0.1627	369.079	0.051491	-296.296482	-296.292265	-296.291321	-296.323929	14.143	
C	-0.0022566749	 1.2847258428	 0.0096642652	 0.130928
N	 1.1184984597	 2.0141066174	 0.0026733238	-0.162241
N	 2.274182017	 1.3728126461	-0.0123636619	-0.036837
N	 2.3077871306	 0.0514887757	-0.0201052072	-0.162242
C	 1.1425760854	-0.6045320961	-0.0122604493	 0.130928
N	-0.0609880773	-0.0424085146	 0.0028168241	-0.212291
H	-0.9357677061	 1.8411421041	 0.0220501248	 0.155878
H	 1.2037661054	-1.6896158454	-0.0189197895	 0.155878
286.3917	300.873	676.6926	731.0886	814.9014	948.868	964.0402	1017.9952	1041.575	1144.4392	1186.6951	1202.4428	1399.1887	1414.3242	1528.3595	1582.8628	3178.9839	3182.2893
C1=NN=NC=N1	c1nnncn1	
InChI=1S/C2H2N4/c1-3-2-5-6-4-1/h1-2H	InChI=1S/C2H2N4/c1-3-2-5-6-4-1/h1-2H
