11
gdb 3772	4.12379	3.60526	1.94734	0.4801	48.26	-0.2507	-0.0251	0.2255	602.5709	0.079764	-372.755216	-372.749043	-372.748099	-372.785539	21.082	
C	 0.0613019826	 1.4313772517	-0.0530551069	-0.333729
N	 0.0839450645	-0.012324864	-0.0050905523	-0.062775
N	 0.2067069388	-0.7780119361	-1.1209549762	-0.115053
N	 0.1963958519	-2.0014691478	-0.7758802957	-0.067999
N	 0.0661719053	-2.0488745903	 0.5755028284	-0.302936
C	-0.0126686722	-0.7885063872	 1.1428003013	 0.517295
O	-0.131131034	-0.4464626927	 2.2982507188	-0.415647
H	 0.9911816391	 1.8170089054	-0.4782065397	 0.154839
H	-0.7844707362	 1.7836159743	-0.6486803744	 0.154818
H	-0.0441250519	 1.7755651888	 0.9772084731	 0.176113
H	 0.0365931221	-2.9329885621	 1.0539227636	 0.295072
85.9867	180.8938	247.7687	275.2637	483.2385	506.4397	700.7997	701.0302	749.2504	793.6722	945.7813	1036.1098	1085.4924	1159.261	1196.5726	1275.6617	1362.0738	1412.8046	1451.9445	1483.8146	1485.7202	1514.1873	1854.482	3054.3148	3125.5947	3155.4063	3688.7854
CN1N=NNC1=O	Cn1nn[nH]c1=O	
InChI=1S/C2H4N4O/c1-6-2(7)3-4-5-6/h1H3,(H,3,5,7)	InChI=1S/C2H4N4O/c1-6-2(7)3-4-5-6/h1H3,(H,3,5,7)
