9
gdb 188	9.20111	4.03528	2.80507	4.6537	39.72	-0.2215	0.0207	0.2422	425.4583	0.063077	-321.276274	-321.271636	-321.270692	-321.3041	16.761	
O	 0.0114807811	-0.0226584084	 0.0028648289	-0.396627
C	-0.0356291321	 1.1758295797	 0.0101034337	 0.492835
N	-1.1235105939	 2.0223140547	 0.0290620129	-0.361014
C	-0.7030196719	 3.3515559387	 0.0303489828	-0.104981
C	 0.6340859591	 3.3171497633	 0.0120491151	-0.013427
O	 1.070505494	 2.0105220715	-0.0007953265	-0.204586
H	-2.0674369272	 1.680010545	 0.0399178887	 0.27976
H	-1.3885132683	 4.1807762713	 0.0439017986	 0.153452
H	 1.3882389191	 4.0835849343	 0.0057790258	 0.154589
218.9613	417.7203	505.2932	596.4054	693.2167	736.2023	773.4736	788.5167	894.8037	919.4458	1056.0541	1115.7364	1136.116	1188.9301	1370.6531	1413.8204	1657.68	1901.7066	3287.4193	3313.8165	3701.7282
O=C1NC=CO1	O=c1[nH]cco1	
InChI=1S/C3H3NO2/c5-3-4-1-2-6-3/h1-2H,(H,4,5)	InChI=1S/C3H3NO2/c5-3-4-1-2-6-3/h1-2H,(H,4,5)
