16
gdb 3562	5.16573	3.0477	3.02365	1.468	63.2	-0.2274	0.1048	0.3322	565.6007	0.140476	-288.580309	-288.575408	-288.574463	-288.608534	21.158	
C	 0.0229295165	 1.4740406233	-0.0492258963	-0.252267
C	 1.2958884743	 0.7191316969	 0.0745098974	-0.01561
C	 1.836613652	 0.3217050049	 1.4555457547	-0.04656
C	 1.4352752925	-1.1995260658	 1.4280331212	-0.20216
C	 0.0088753538	-0.5693237676	 1.4325533806	 0.017981
C	 0.6106433503	 0.4952056063	 2.3915352048	-0.242999
N	-0.0145007359	 0.0034894253	 0.0449501797	-0.109953
H	-0.3444828741	 2.092509389	 0.7614371159	 0.114713
H	-0.2564299541	 1.8372802631	-1.0349116086	 0.114338
H	 1.9463441182	 0.596531389	-0.7878191501	 0.092061
H	 2.8346805718	 0.6625336752	 1.7288728815	 0.065643
H	 1.7070439167	-1.7813741998	 0.5444073654	 0.102555
H	 1.6867520324	-1.7339821286	 2.3465489345	 0.094599
H	-0.8935941334	-1.1333774592	 1.6646434418	 0.071874
H	 0.7993434058	 0.0711157863	 3.3789106032	 0.101058
H	 0.1415616932	 1.4723579916	 2.5087749943	 0.094725
351.6114	429.9586	553.6535	560.8473	640.377	725.0459	782.1288	828.6959	838.8446	858.0372	883.3221	919.1694	975.8797	985.5579	1027.8428	1036.1181	1053.721	1059.3716	1098.5736	1113.2322	1115.0284	1130.3356	1155.6736	1213.6479	1233.0718	1241.696	1255.2184	1276.5473	1299.1831	1366.5572	1477.542	1502.0134	1543.3109	3066.5336	3083.7384	3119.9226	3120.6179	3126.0519	3131.8089	3135.4538	3140.1607	3205.5907
C1C2C3CC(C3)N12	C1[C@H]2[C@@H]3C[C@@H](C3)N12	
InChI=1S/C6H9N/c1-4-2-5(1)7-3-6(4)7/h4-6H,1-3H2	InChI=1S/C6H9N/c1-4-2-5(1)7-3-6(4)7/h4-6H,1-3H2/t4-,5+,6-,7?/m0/s1
