19
gdb 2947	4.92537	1.92998	1.65775	0.9944	67.35	-0.2442	0.0835	0.3277	835.5516	0.172772	-310.927319	-310.919791	-310.918846	-310.959816	27.409	
C	-0.5005466838	 0.9577149532	-0.0724054248	-0.234877
O	 0.0705279442	-0.3193308755	 0.0662710837	-0.248563
C	 0.9521188044	-0.4456484534	 1.177942071	 0.147633
C	 0.1824019541	-0.6042887549	 2.5215999832	-0.221499
C	 0.2388415075	-2.1156140361	 2.8788846838	-0.194481
C	 0.7481699893	-2.8114820182	 1.6025059587	-0.192614
C	 1.7038113529	-1.7712832725	 1.0013463685	-0.217444
H	 0.2705974551	 1.7377300611	-0.1811899125	 0.100343
H	-1.1154956328	 0.9425382513	-0.9761266339	 0.123901
H	-1.1419504127	 1.2326952405	 0.7791460521	 0.101422
H	 1.6299359433	 0.4210435374	 1.1927517464	 0.052515
H	 0.6243838334	 0.0114317305	 3.310451389	 0.094269
H	-0.8478478587	-0.2617283001	 2.3919423341	 0.105843
H	 0.9498249296	-2.2797611171	 3.6965503383	 0.095665
H	-0.7261583594	-2.5029780475	 3.2166058595	 0.094557
H	 1.2246107003	-3.7751967089	 1.8027026317	 0.088276
H	-0.0799405561	-2.9859009141	 0.907300513	 0.110817
H	 1.9576952552	-1.943555759	-0.0470991422	 0.103035
H	 2.6360215842	-1.7382053667	 1.5786321005	 0.091202
29.0201	119.1727	191.0378	203.1904	311.2207	387.2007	458.8429	568.4045	700.8637	793.0298	825.1134	859.7285	897.1801	907.9969	941.0691	973.9881	1014.2845	1044.7586	1088.3877	1136.571	1175.3112	1185.4855	1191.0319	1225.7883	1235.0123	1250.8448	1299.7172	1311.9827	1341.0744	1347.5676	1355.4525	1393.3459	1474.8476	1477.4301	1479.1617	1488.0456	1489.6886	1508.5654	1511.1085	2966.1369	2984.0668	3011.4484	3037.0166	3037.9456	3048.8543	3058.7799	3082.9469	3096.0951	3104.9657	3107.0788	3110.2722
COC1CCCC1	COC1CCCC1	
InChI=1S/C6H12O/c1-7-6-4-2-3-5-6/h6H,2-5H2,1H3	InChI=1S/C6H12O/c1-7-6-4-2-3-5-6/h6H,2-5H2,1H3
