11
gdb 3872	7.66889	2.23711	1.7362	2.9304	48.65	-0.221	0.0237	0.2447	661.8571	0.08068	-372.766726	-372.760678	-372.759733	-372.796145	22.794	
N	-0.0102267041	 1.3210165797	 0.1344859612	-0.593484
C	-0.0461400384	-0.0342901519	 0.0569790234	 0.514717
N	-1.1023013942	-0.80033037	 0.0920346986	-0.392533
C	-0.5232179195	-2.0473742416	 0.0440302397	 0.423173
N	-1.2892195577	-3.182333282	 0.1239990818	-0.584983
N	 0.7882301996	-2.075880035	-0.0335076706	-0.234165
O	 1.1160351435	-0.6796554575	-0.014381347	-0.214634
H	 0.8226751238	 1.7703995879	-0.2106323777	 0.275283
H	-0.8795924594	 1.7868099248	-0.068763885	 0.278366
H	-2.230257796	-3.0639820617	-0.2185606519	 0.263847
H	-0.8348443376	-4.0223436227	-0.2013089426	 0.264413
215.9135	297.7513	341.2096	371.6753	394.1332	465.9777	489.5692	571.6371	669.2664	722.6975	790.765	798.6425	905.0565	1025.9503	1045.8474	1126.8287	1141.3298	1400.4324	1484.3859	1588.9012	1617.0884	1658.8326	1692.1678	3583.4365	3602.8757	3693.1083	3718.9715
NC1=NC(N)=NO1	Nc1nc(N)no1	
InChI=1S/C2H4N4O/c3-1-5-2(4)7-6-1/h(H4,3,4,5,6)	InChI=1S/C2H4N4O/c3-1-5-2(4)7-6-1/h(H4,3,4,5,6)
