14
gdb 2647	19.31727	0.85167	0.82824	4.3643	67.09	-0.2613	0.0264	0.2878	1313.7438	0.111997	-287.438379	-287.429997	-287.429052	-287.473044	27.168	
C	-0.0122267533	 1.4820147566	 0.0180524407	-0.497361
C	 0.0025916133	 0.0278880796	-0.0517267944	 0.113393
C	 0.0300623984	-1.1740867825	-0.1127329339	 0.022075
C	 0.0255647093	-2.6294038064	-0.1774241478	-0.34776
C	-1.376307819	-3.2113544364	 0.1435270689	-0.324171
C	-1.3941175431	-4.6707812166	 0.0818422525	 0.254717
N	-1.3871146528	-5.8250309197	 0.0278551374	-0.302115
H	 0.6842621174	 1.8499907157	 0.779223223	 0.152254
H	 0.2749217253	 1.9292115238	-0.9397807283	 0.152258
H	-1.0096076188	 1.8564898097	 0.2730930449	 0.150929
H	 0.3320286292	-2.9700745599	-1.1731211331	 0.14982
H	 0.7534092841	-3.0471002045	 0.5276693826	 0.14981
H	-1.6897541694	-2.8921415311	 1.1424259966	 0.163074
H	-2.1122400506	-2.8148565882	-0.562965919	 0.163076
14.9136	61.1437	84.2388	188.1077	215.8912	298.6322	377.5122	407.3769	481.4458	521.1374	766.0222	774.8791	950.9115	1006.6627	1031.2113	1053.5916	1056.9405	1171.7603	1198.4519	1284.7793	1306.7638	1370.1316	1415.3255	1468.1661	1477.4215	1478.3412	1482.1049	2363.2755	2376.4883	3029.0634	3035.7044	3060.4174	3066.8309	3090.6447	3091.3104	3103.2546
CC#CCCC#N	CC#CCCC#N	
InChI=1S/C6H7N/c1-2-3-4-5-6-7/h4-5H2,1H3	InChI=1S/C6H7N/c1-2-3-4-5-6-7/h4-5H2,1H3
