12
gdb 4208	5.69508	2.57472	1.77311	1.2641	58.19	-0.243	-0.0087	0.2343	646.1342	0.092123	-331.411639	-331.406505	-331.405561	-331.440449	20.115	
F	 0.0018123068	 0.0185526922	 0.0036786849	-0.087011
C	-0.0163561014	 1.3566680459	 0.0106225625	 0.316138
C	-1.2391398138	 2.0133412731	 0.0302940082	-0.238433
C	-1.2496148565	 3.4061416766	 0.037416568	-0.08169
C	-0.0538997981	 4.1218111685	 0.024991164	-0.115594
C	 1.1608026955	 3.439035941	 0.0053010093	-0.08169
C	 1.1881459921	 2.0464657894	-0.0020488151	-0.238432
H	-2.1548410159	 1.4339368461	 0.0396547131	 0.109882
H	-2.1986717599	 3.9313475557	 0.0527604747	 0.104168
H	-0.0686188958	 5.2058980344	 0.0306258009	 0.098611
H	 2.0952486386	 3.9899455166	-0.0044499949	 0.104168
H	 2.1192387346	 1.4922640204	-0.0172973855	 0.109882
242.2515	405.6341	423.7619	517.3056	523.0544	623.0781	704.1833	775.0643	827.7738	844.7107	910.6343	953.3747	981.6342	1014.9794	1039.7573	1089.9935	1176.5394	1178.4956	1279.5097	1311.1498	1344.25	1484.1072	1528.3084	1639.4333	1640.871	3177.1152	3185.5145	3198.6562	3206.416	3209.576
FC1=CC=CC=C1	Fc1ccccc1	
InChI=1S/C6H5F/c7-6-4-2-1-3-5-6/h1-5H	InChI=1S/C6H5F/c7-6-4-2-1-3-5-6/h1-5H
