15
gdb 3094	3.85623	1.9952	1.67357	2.8114	58.86	-0.2413	-0.0186	0.2227	786.4513	0.123474	-345.645491	-345.637911	-345.636967	-345.677107	27.134	
C	-0.0468158736	 1.5689237322	-0.1406590139	-0.412125
C	 0.041862545	 0.0617984188	-0.0189687743	-0.045301
C	 1.3250804944	-0.6627262705	-0.1976297079	 0.07355
O	 2.4519464327	 0.1169661658	-0.4523733196	-0.408705
C	 0.6800225897	-0.6395893364	 1.1981792692	-0.169462
C	 1.3025923783	 0.1339714616	 2.29190898	 0.154444
O	 1.257191687	-0.1960247263	 3.4550974606	-0.27695
H	 0.9060211274	 2.0533616894	 0.0758853511	 0.143369
H	-0.3254271533	 1.8399050968	-1.1641798782	 0.126154
H	-0.8078127543	 1.9753967059	 0.5325146159	 0.126354
H	-0.8354429851	-0.4640433914	-0.3850771004	 0.104508
H	 1.307951508	-1.6261089998	-0.7064951055	 0.101505
H	 3.2240313311	-0.3395143968	-0.1018364548	 0.29764
H	 0.2065836892	-1.5549426079	 1.5375502516	 0.104569
H	 1.8408339035	 1.0537392388	 1.9832737463	 0.08045
91.7586	174.8237	189.0319	220.5648	254.478	354.7561	406.7926	443.5927	560.9942	576.536	726.4322	841.9923	902.4163	967.8042	980.591	1025.6877	1055.9247	1098.2009	1147.0888	1179.1364	1185.8717	1238.1854	1288.985	1334.1014	1378.8178	1417.8801	1446.2986	1463.9929	1496.1196	1508.7988	1801.0665	2916.1124	3045.1625	3102.4549	3102.7978	3137.8744	3153.0267	3172.6768	3810.0466
CC1C(O)C1C=O	C[C@H]1[C@@H](O)[C@H]1C=O	
InChI=1S/C5H8O2/c1-3-4(2-6)5(3)7/h2-5,7H,1H3	InChI=1S/C5H8O2/c1-3-4(2-6)5(3)7/h2-5,7H,1H3/t3-,4+,5-/m1/s1
