17
gdb 4169	3.42444	1.43046	1.14733	1.3936	67.74	-0.2454	-0.0033	0.2421	1062.6336	0.141212	-400.935647	-400.92716	-400.926216	-400.969061	31.131	
O	 0.34867123	 0.8840809252	 0.7777821692	-0.416634
C	-0.0324618916	 0.0098142779	-0.2661079769	-0.147052
C	-1.4770411683	-0.4577040691	-0.1531871492	 0.339847
N	-2.4748263261	 0.3423294484	-0.1236619733	-0.186915
O	-2.0593072461	 1.6943555765	-0.2121239	-0.414758
C	-1.7454878372	-1.9126570325	-0.0316638319	-0.077044
C	-2.1600102518	-2.4826480819	 1.3195956661	-0.24584
C	-3.1351314191	-2.4517375829	 0.1769019246	-0.266994
H	-0.2667943451	 1.6262531068	 0.7334814318	 0.296957
H	 0.1047086378	 0.4726875591	-1.2570797701	 0.109163
H	 0.6355063653	-0.853750224	-0.2089183921	 0.110962
H	-2.8945466845	 2.1691731996	-0.1583397678	 0.310567
H	-1.0574256518	-2.5292626747	-0.6032004698	 0.093926
H	-1.7320570859	-3.4325634562	 1.6200426413	 0.116239
H	-2.3013436887	-1.7707599012	 2.1245915001	 0.128344
H	-3.9386089826	-1.7271091784	 0.2153692376	 0.136365
H	-3.3837420142	-3.3873226727	-0.3111982197	 0.112868
49.3279	98.6352	183.0083	214.7676	254.5658	313.549	392.9082	399.1071	440.4729	504.1938	600.9775	631.9298	784.5179	829.1228	841.6551	896.1541	909.2415	955.6709	995.8669	1058.5132	1077.4738	1085.8511	1116.334	1125.1332	1170.8902	1201.6915	1229.3991	1248.5641	1363.9333	1375.4271	1428.4294	1461.5081	1464.7966	1491.2744	1497.4289	1715.633	2973.0862	3091.1355	3138.377	3143.4124	3148.6488	3225.7303	3242.3814	3781.2909	3832.7147
OCC(=NO)C1CC1	OCC(=NO)C1CC1	
InChI=1S/C5H9NO2/c7-3-5(6-8)4-1-2-4/h4,7-8H,1-3H2	InChI=1S/C5H9NO2/c7-3-5(6-8)4-1-2-4/h4,7-8H,1-3H2
