13
gdb 1424	6.56078	1.38159	1.19923	2.3722	52.52	-0.2745	-0.0483	0.2262	924.2222	0.098321	-381.619786	-381.611962	-381.611018	-381.652734	25.598	
C	-0.0769359086	 1.5066670523	-0.1421308963	-0.393898
C	 0.0970290215	 0.0039009282	 0.0209005622	 0.018701
O	 0.75178439	-0.3165934329	 1.2552556234	-0.190561
C	 2.0472895354	-0.6967744598	 1.2136116005	 0.176081
O	 2.6763749681	-0.9504022373	 2.1931252089	-0.263155
C	-1.2294351037	-0.7551004758	 0.0209658581	 0.150812
O	-2.1913090084	-0.4098123106	-0.6095242721	-0.230816
H	 0.8899416242	 1.997543803	-0.2769880601	 0.128208
H	-0.707287052	 1.702959026	-1.0121676598	 0.152429
H	-0.5639479071	 1.9268881208	 0.7414761621	 0.146892
H	 0.6866884594	-0.4053781358	-0.8163271096	 0.116832
H	 2.4426429882	-0.7478017498	 0.1793655902	 0.082963
H	-1.220018637	-1.6708048084	 0.6505082426	 0.105511
54.4138	79.205	156.7658	201.2641	246.0961	260.3987	401.2156	421.2382	541.374	693.3658	855.1231	915.1438	957.5076	1043.2535	1108.5444	1121.4282	1146.6101	1191.6121	1321.5295	1341.0793	1394.5723	1411.8469	1433.2777	1483.6972	1495.2595	1843.3262	1875.7671	2912.1049	2938.9863	2976.9163	3056.3609	3133.9364	3144.8948
CC(OC=O)C=O	C[C@@H](OC=O)C=O	
InChI=1S/C4H6O3/c1-4(2-5)7-3-6/h2-4H,1H3	InChI=1S/C4H6O3/c1-4(2-5)7-3-6/h2-4H,1H3/t4-/m1/s1
