17
gdb 2279	6.93629	1.39227	1.25177	2.7493	65.2	-0.2467	-0.0193	0.2274	957.0076	0.147861	-309.719124	-309.711718	-309.710774	-309.751541	26.246	
O	-0.6323138046	 0.897986158	 0.755310112	-0.239621
C	 0.0044742209	 1.0704318362	-0.2519062429	 0.164705
C	 1.3569100341	 1.741058318	-0.3252544175	-0.299515
C	 1.3369754709	 2.9616702064	-1.2476592965	 0.045494
C	 0.6074424605	 4.2547548488	-0.7814082151	-0.218875
C	 1.7554870322	 5.0825245468	-1.4190572715	-0.207999
C	 2.6352456017	 3.8028157429	-1.4037680791	-0.233472
H	-0.3924846662	 0.7388590185	-1.2416721512	 0.067563
H	 1.6710678561	 2.0118294	 0.6877108666	 0.115361
H	 2.071457223	 1.0044082929	-0.7224121031	 0.115727
H	 0.9692860472	 2.6661734068	-2.2380306547	 0.075586
H	-0.4108390476	 4.4246744175	-1.1391585761	 0.100881
H	 0.6084623799	 4.3361339748	 0.3102591522	 0.10866
H	 1.513243128	 5.3950934504	-2.4387867771	 0.104208
H	 2.1192618999	 5.9523400207	-0.8680316844	 0.100508
H	 3.2516518271	 3.7494236514	-0.5005480771	 0.102706
H	 3.2702482669	 3.6007715499	-2.2699410644	 0.098084
50.7044	85.3874	140.6713	209.6406	355.2478	390.7307	504.4365	623.8162	742.7728	781.8205	833.1866	900.2654	926.7115	934.9402	972.1835	976.0817	1013.2256	1086.8183	1113.5685	1162.3713	1198.1761	1212.6387	1254.5339	1256.7481	1264.234	1269.7019	1293.2798	1310.3064	1381.5134	1429.8534	1461.7889	1478.3628	1487.4178	1510.3988	1834.4171	2842.361	3005.6607	3028.3596	3049.0186	3054.2276	3061.0005	3089.5904	3099.8108	3104.7233	3120.8656
O=CCC1CCC1	O=CCC1CCC1	
InChI=1S/C6H10O/c7-5-4-6-2-1-3-6/h5-6H,1-4H2	InChI=1S/C6H10O/c7-5-4-6-2-1-3-6/h5-6H,1-4H2
