11
gdb 2741	4.67396	2.30999	1.68766	5.5643	52.43	-0.2768	0.0011	0.2778	689.3581	0.079407	-339.464817	-339.458528	-339.457584	-339.495329	21.765	
O	-0.0563198601	 0.0026858918	 0.0304121718	-0.327126
C	-0.0494497702	 1.196825258	 0.0311163257	 0.436429
N	-1.0194460816	 2.1597041425	-0.0140019328	-0.314664
C	-0.1315444094	 3.3211553	 0.0517951829	-0.165429
C	 1.0666980129	 2.3162668104	 0.056970177	-0.303712
C	 1.9408252511	 2.3389929163	 1.2107165954	 0.285903
N	 2.6276202946	 2.3620787081	 2.140250343	-0.313171
H	-2.0247175451	 2.0816200214	-0.0526205844	 0.267348
H	-0.1715767732	 3.973460056	-0.8245754423	 0.132873
H	-0.2272967298	 3.9114375228	 0.9662916313	 0.1448
H	 1.6494944407	 2.3232709828	-0.8667387477	 0.156749
106.8627	140.1049	208.2581	401.0845	412.1451	521.1388	552.5513	691.0845	744.1679	836.3992	891.8587	995.2241	1056.8197	1080.2398	1143.2265	1165.4209	1177.081	1299.8783	1322.1368	1399.4028	1528.0771	1924.4321	2360.4532	3060.0438	3100.2095	3116.0844	3621.1953
O=C1NCC1C#N	O=C1NC[C@H]1C#N	
InChI=1S/C4H4N2O/c5-1-3-2-6-4(3)7/h3H,2H2,(H,6,7)	InChI=1S/C4H4N2O/c5-1-3-2-6-4(3)7/h3H,2H2,(H,6,7)/t3-/m1/s1
