9
gdb 36	19.98749	6.11589	4.82584	3.7071	32.78	-0.2516	0.0335	0.2851	279.7863	0.074166	-209.144909	-209.139976	-209.139032	-209.172305	15.058	
C	 0.0147491621	 1.4788825642	-0.0350932578	-0.327715
N	 0.1870807741	 0.0383131658	-0.0290685057	-0.262137
C	 0.4570366092	-0.6685889487	 1.1006900127	 0.159678
O	 0.58457996	-0.1987620204	 2.2111970528	-0.32011
H	 0.7602528945	 1.9673610405	-0.6719812596	 0.128473
H	-0.9846242302	 1.7598448252	-0.3848510337	 0.12846
H	 0.1426984938	 1.8238771805	 0.9914939742	 0.173249
H	 0.1038634896	-0.4693772635	-0.8946137946	 0.248025
H	 0.5504756768	-1.7525345237	 0.8886824218	 0.072077
83.4306	264.1848	298.606	536.8129	770.4379	961.4263	1028.7995	1157.3112	1161.4544	1222.3594	1429.7994	1439.9119	1490.9229	1499.6665	1553.8607	1811.5889	2933.2227	3030.2688	3083.1143	3154.809	3643.0398
CNC=O	CNC=O	
InChI=1S/C2H5NO/c1-3-2-4/h2H,1H3,(H,3,4)	InChI=1S/C2H5NO/c1-3-2-4/h2H,1H3,(H,3,4)
