18
gdb 1240	6.4626	1.13351	1.02	4.2459	68.71	-0.3136	0.0381	0.3517	1144.5955	0.15912	-289.87199	-289.863454	-289.86251	-289.905076	30.158	
C	 0.0815184924	 1.56376696	 0.0152646621	-0.386929
C	 0.0038564526	 0.0301996797	 0.0300945775	 0.035898
C	 0.7419777442	-0.5362502343	 1.2507555509	-0.394016
C	-1.444465114	-0.4890682657	 0.0042266578	-0.166612
C	-2.2095936401	-0.1293584827	-1.286464003	-0.351652
C	-3.551517018	-0.7068841438	-1.316384627	 0.258285
N	-4.6095267197	-1.1718389577	-1.3230868371	-0.306022
H	 1.1227382546	 1.8986932286	 0.0555049142	 0.118639
H	-0.3636742477	 1.9973900285	-0.8855885108	 0.113549
H	-0.4368194239	 1.9889284472	 0.8831382639	 0.117999
H	 0.5084742105	-0.3450378786	-0.8725063079	 0.075933
H	 0.2749247765	-0.1970232669	 2.1828857344	 0.117533
H	 0.7322208413	-1.6309992736	 1.2523160352	 0.115472
H	 1.7863737877	-0.2089365694	 1.2654156122	 0.115324
H	-1.4402822696	-1.5793046332	 0.1108250082	 0.116923
H	-1.9945032021	-0.0947812213	 0.8674791544	 0.116179
H	-2.3030488473	 0.9560001906	-1.3967875241	 0.15376
H	-1.6591744274	-0.4885460874	-2.1645299508	 0.149737
65.9828	107.1774	126.9357	225.0782	253.0457	258.1449	352.0149	390.4622	418.069	436.3726	547.3625	764.0961	828.9911	928.9381	938.1667	946.2569	966.4216	980.3896	1034.7526	1139.5707	1146.5779	1194.6978	1234.9601	1284.5528	1318.0824	1349.9922	1372.4556	1388.8527	1403.3968	1425.1217	1468.463	1485.9793	1491.5412	1498.436	1506.4973	1512.6032	2361.7097	2995.0447	3026.7642	3028.9702	3034.9945	3044.8557	3070.0837	3091.3337	3093.9465	3098.5406	3103.3303	3105.4916
CC(C)CCC#N	CC(C)CCC#N	
InChI=1S/C6H11N/c1-6(2)4-3-5-7/h6H,3-4H2,1-2H3	InChI=1S/C6H11N/c1-6(2)4-3-5-7/h6H,3-4H2,1-2H3
