17
gdb 4490	3.51144	1.73335	1.1796	1.3324	73.59	-0.1791	0.0345	0.2136	1023.4238	0.141601	-363.902896	-363.894235	-363.893291	-363.935925	31.2	
C	 0.1142485321	 1.4544530832	-0.0867481318	-0.491323
C	-0.0665844554	-0.0202155629	-0.0345734473	 0.362343
C	-1.1640055035	-0.8220910393	-0.007835865	-0.327209
C	-0.6836746942	-2.176940971	 0.0353260453	 0.138709
N	-1.4975439303	-3.3187662031	 0.1516132865	-0.609112
C	 0.6789881147	-2.1016161438	 0.0293101758	 0.29251
C	 1.7645772638	-3.1142910746	 0.0753873811	-0.500216
O	 1.0611517622	-0.7777083368	-0.0053981396	-0.222706
H	 0.6657552959	 1.7624060989	-0.9828767212	 0.133713
H	-0.8598210109	 1.9486202352	-0.0989720226	 0.131391
H	 0.6737363741	 1.82220836	 0.7812295297	 0.135386
H	-2.194452654	-0.5001561644	-0.0094963472	 0.096027
H	-2.3068697379	-3.2731808425	-0.4558078142	 0.24093
H	-0.9947331853	-4.1753427578	-0.0448854412	 0.23609
H	 2.5262465782	-2.917152143	-0.6877160722	 0.133499
H	 2.2752753769	-3.1452500144	 1.0468316109	 0.132619
H	 1.3596466134	-4.1138900737	-0.1115836269	 0.117348
94.8008	113.783	171.0141	184.792	236.5367	252.6993	275.6331	351.3029	467.4032	594.116	625.2968	639.3619	661.3343	766.1287	782.5963	807.5629	940.9118	1017.2342	1030.6469	1055.9428	1062.0542	1064.8001	1175.2751	1221.9112	1271.7272	1315.2525	1411.2142	1417.4877	1459.2511	1468.2131	1472.2142	1493.8978	1496.3102	1617.881	1650.4665	1702.3609	3013.1027	3026.9174	3063.3598	3075.1714	3100.4	3127.1279	3245.638	3523.071	3611.5275
CC1=CC(N)=C(C)O1	Cc1cc(N)c(C)o1	
InChI=1S/C6H9NO/c1-4-3-6(7)5(2)8-4/h3H,7H2,1-2H3	InChI=1S/C6H9NO/c1-4-3-6(7)5(2)8-4/h3H,7H2,1-2H3
