13
gdb 1904	6.26209	2.14472	1.89435	3.2317	54.64	-0.2432	-0.0269	0.2164	680.5569	0.100141	-344.433943	-344.427581	-344.426636	-344.464028	23.552	
C	 0.0526714002	 1.5362300733	 0.0191099543	-0.499667
C	-0.0750900087	 0.0518887638	 0.1164936224	 0.416054
C	-1.3435008348	-0.8174634858	-0.0060964878	-0.411342
C	-0.6545978596	-1.790988868	 0.9988751332	 0.433204
O	-1.0310015838	-2.7363266625	 1.6234897795	-0.295738
C	 0.5949609633	-0.9188376244	 1.030927715	-0.172844
O	 0.9862681163	-0.774521476	-0.3550032455	-0.270764
H	 1.0651483332	 1.8501914312	 0.284825583	 0.141677
H	-0.1531753475	 1.8739156258	-1.0024403731	 0.139998
H	-0.6595778604	 2.030633598	 0.686726331	 0.133462
H	-2.246843852	-0.3901578638	 0.4402989432	 0.131968
H	-1.5603448218	-1.1927014883	-1.0080889887	 0.134867
H	 1.3639661255	-0.7949558933	 1.7846664134	 0.119125
113.2317	202.9271	277.2418	353.5264	428.4107	468.481	571.1687	614.9874	687.569	767.814	829.7082	927.8903	954.6764	989.1922	1032.7081	1041.7224	1071.9888	1144.1011	1189.4418	1223.4345	1247.7666	1396.0266	1432.14	1457.6065	1480.8451	1492.8345	1901.222	3039.602	3065.0816	3103.5888	3127.3837	3129.2969	3193.0378
CC12CC(=O)C1O2	C[C@]12CC(=O)[C@H]1O2	
InChI=1S/C5H6O2/c1-5-2-3(6)4(5)7-5/h4H,2H2,1H3	InChI=1S/C5H6O2/c1-5-2-3(6)4(5)7-5/h4H,2H2,1H3/t4-,5+/m1/s1
