15
gdb 4196	4.65413	1.62013	1.32	0.8787	64.76	-0.2338	0.0036	0.2374	902.3572	0.119022	-399.739905	-399.732947	-399.732003	-399.771065	26.556	
O	-0.1583216893	 1.3107774467	-0.0733265875	-0.398098
N	 0.0071455768	-0.0892713906	-0.1090326223	-0.237497
C	-1.1157886357	-0.6712756069	 0.0317481166	 0.393443
C	-2.4755760547	-0.0327917531	 0.2365344688	-0.168423
O	-3.3489410962	-1.073589256	 0.6734351191	-0.266467
C	-2.7210475683	-2.3193253341	 0.5120767373	 0.12457
C	-2.3131379045	-2.729983428	-0.8676017332	-0.327843
C	-1.2794710823	-2.1374672111	 0.0986128786	-0.170843
H	 0.7483198918	 1.62550646	-0.1505659508	 0.308477
H	-2.4378487374	 0.7560521392	 0.9950767541	 0.141062
H	-2.8409204197	 0.4220756813	-0.6947791271	 0.127644
H	-3.0462976974	-3.0463346348	 1.2467110334	 0.110692
H	-2.216190262	-3.7908268514	-1.0706499396	 0.124265
H	-2.6416797766	-2.1318828291	-1.7105344938	 0.127632
H	-0.4615086944	-2.7503608621	 0.4524649064	 0.111387
110.3447	168.8861	223.8341	328.7865	381.0776	446.9556	469.1041	558.5126	667.9007	705.7575	769.8669	804.7508	863.8684	944.3791	958.8946	979.0213	995.8622	1033.5001	1044.465	1052.9981	1092.9668	1161.4813	1190.7316	1201.7714	1247.2455	1314.028	1330.8936	1383.0107	1418.2841	1475.8188	1499.2209	1759.2601	3011.8011	3070.0234	3135.5977	3185.2167	3206.8249	3227.5144	3824.0043
ON=C1COC2CC12	ON=C1CO[C@H]2C[C@@H]12	
InChI=1S/C5H7NO2/c7-6-4-2-8-5-1-3(4)5/h3,5,7H,1-2H2	InChI=1S/C5H7NO2/c7-6-4-2-8-5-1-3(4)5/h3,5,7H,1-2H2/t3-,5-/m0/s1
