14
gdb 667	6.04615	3.50039	3.42472	1.3959	52.57	-0.2452	0.0769	0.3221	485.374	0.120797	-270.394458	-270.388966	-270.388022	-270.422979	21.07	
O	-0.0164463328	 1.4309795797	 0.2917771542	-0.421779
C	-0.0770401144	 0.0425370844	 0.1185786702	 0.11765
C	-0.4471420321	-0.8270207943	 1.2702416646	-0.082773
C	-1.5207905549	-0.1522964545	 2.1338267974	-0.214861
C	-2.4491648181	-0.042010259	 0.8836166053	-0.218778
C	-1.3691828156	-0.7170601209	 0.0282159127	-0.111517
H	-0.3098732903	 1.8448322684	-0.5266617526	 0.285083
H	 0.7199172662	-0.366234925	-0.5044935325	 0.08229
H	 0.187985276	-1.6455698645	 1.5887873522	 0.083725
H	-1.930091979	-0.8219964431	 2.8927340298	 0.098637
H	-1.2224976984	 0.7864243722	 2.6061503878	 0.110464
H	-3.3505455422	-0.6502941772	 0.9808741636	 0.100495
H	-2.7369919053	 0.9679661759	 0.5770759461	 0.091292
H	-1.5521012992	-1.4362115922	-0.7626247486	 0.080074
218.4784	241.8299	292.0696	451.3507	589.4859	732.273	740.5749	791.8451	807.4506	927.6048	954.7823	965.8282	1005.6903	1014.4334	1021.3821	1078.2575	1120.1611	1147.4216	1210.9555	1230.3274	1246.4093	1263.9006	1296.652	1305.3804	1350.541	1453.0099	1473.52	1500.409	3053.7564	3068.6743	3092.1272	3104.1745	3124.4378	3164.6853	3177.9558	3805.9497
OC1C2CCC12	O[C@H]1[C@H]2CC[C@@H]12	
InChI=1S/C5H8O/c6-5-3-1-2-4(3)5/h3-6H,1-2H2	InChI=1S/C5H8O/c6-5-3-1-2-4(3)5/h3-6H,1-2H2/t3-,4+,5-
