16
gdb 3452	4.46637	2.75276	2.0582	2.126	59.36	-0.2294	0.067	0.2964	663.8025	0.138851	-325.75123	-325.744991	-325.744047	-325.781041	24.329	
O	 0.2144658562	 1.1739268291	-0.6361066374	-0.434426
C	 0.0024629505	-0.058872234	 0.0352333173	 0.126048
C	 0.4085999335	-0.0514859826	 1.5291288373	-0.285507
C	-0.626165772	-0.9797182199	 2.198061692	-0.151507
N	-1.8505267283	-0.9785975395	 1.3669299066	-0.099022
C	-2.3238072671	 0.3695319439	 1.0242970834	-0.241981
C	-1.4801693369	-0.3888259298	 0.0668933012	-0.013472
H	 1.1633661068	 1.3012795815	-0.7325642364	 0.283541
H	 0.5265023658	-0.8704246492	-0.4934284713	 0.068551
H	 1.4366331259	-0.386375974	 1.6911443394	 0.096907
H	 0.3370386553	 0.9755746104	 1.8988506799	 0.114359
H	-0.2609925501	-2.0121819949	 2.22784792	 0.107964
H	-0.8670733449	-0.6875292422	 3.2251015443	 0.107849
H	-3.3938235539	 0.4394274735	 0.8540931662	 0.11566
H	-1.8907619664	 1.2304039445	 1.5264173169	 0.115866
H	-1.9234501344	-0.8338018068	-0.8187091396	 0.089171
139.9832	253.8318	273.5931	352.3973	422.1982	529.7677	611.9875	652.6731	743.623	833.2146	862.5237	885.3945	954.3847	972.2152	1001.5017	1010.8622	1078.4391	1103.0612	1116.7044	1134.7447	1173.0265	1201.3658	1234.0875	1238.2711	1268.1834	1303.7849	1342.7963	1354.0688	1397.3448	1435.0224	1490.2574	1500.6195	1524.4127	2975.4824	3040.7426	3060.096	3081.8911	3106.5866	3115.4167	3154.5411	3198.2358	3819.3205
OC1CCN2CC12	O[C@H]1CCN2C[C@@H]12	
InChI=1S/C5H9NO/c7-5-1-2-6-3-4(5)6/h4-5,7H,1-3H2	InChI=1S/C5H9NO/c7-5-1-2-6-3-4(5)6/h4-5,7H,1-3H2/t4-,5-,6?/m0/s1
