17
gdb 2207	4.3537	2.20686	1.74074	1.1573	59.9	-0.2467	0.0564	0.3031	765.9355	0.14793	-346.841762	-346.834126	-346.833182	-346.873175	28.492	
C	 0.1072075934	 1.5742586515	-0.063905758	-0.402964
C	 0.0830647534	 0.0554899102	 0.0180089941	 0.029698
C	 0.9834976937	-0.772829729	-0.9452915209	-0.28466
C	 1.2909421494	-1.7395080085	 0.2326962078	 0.148987
O	 2.6034380809	-2.1901035208	 0.4303843544	-0.441735
C	 0.7763784672	-0.6419967712	 1.219423757	 0.050931
O	 1.8643693479	 0.1477819801	 1.6884361253	-0.435775
H	 1.1249801934	 1.9550313012	 0.0529804547	 0.12943
H	-0.2780658556	 1.9133616823	-1.0315202737	 0.111194
H	-0.5100351069	 2.0268838357	 0.7196027667	 0.11287
H	-0.9496168039	-0.306167102	-0.037549929	 0.074036
H	 0.5279004837	-1.1926922893	-1.8449586085	 0.097317
H	 1.8806332949	-0.2150048642	-1.2326845686	 0.100255
H	 0.6459769414	-2.6225521105	 0.2233306755	 0.086212
H	 3.1263583043	-1.3928719396	 0.5862053713	 0.274272
H	 0.1393720653	-0.9567654717	 2.0550576511	 0.058683
H	 2.2425045775	-0.308035254	 2.4472373607	 0.291249
90.8714	182.2906	212.6265	235.0784	262.9216	341.6474	411.3049	501.0356	555.12	584.949	681.5608	767.5481	847.4496	885.0891	934.6147	950.9229	995.6335	1066.7008	1094.5542	1137.6519	1150.8926	1165.4519	1213.9501	1229.7819	1251.3436	1280.6792	1309.1557	1329.876	1368.639	1405.1473	1421.8776	1444.4193	1483.3465	1492.4487	1500.2377	3019.3743	3033.6679	3046.2919	3053.8792	3075.8628	3095.1937	3113.1818	3122.0416	3766.1794	3821.2024
CC1CC(O)C1O	C[C@H]1C[C@@H](O)[C@H]1O	
InChI=1S/C5H10O2/c1-3-2-4(6)5(3)7/h3-7H,2H2,1H3	InChI=1S/C5H10O2/c1-3-2-4(6)5(3)7/h3-7H,2H2,1H3/t3-,4+,5-/m0/s1
