14
gdb 4809	6.16829	1.29404	1.12536	1.8164	59.9	-0.2158	0.0046	0.2204	1016.304	0.108481	-415.879777	-415.872294	-415.87135	-415.912048	27.022	
N	 0.2608662062	 1.4107367244	-0.1630118376	-0.510382
C	-0.0866589418	 0.0177235533	 0.1434222826	-0.265007
C	 0.7058804087	-0.4784141312	 1.3056604646	 0.433753
N	 0.2788979376	-1.0182588804	 2.4081657698	-0.388126
C	 1.4280370033	-1.3118858414	 3.1153243475	 0.319951
O	 1.3779118378	-1.8903041852	 4.32878424	-0.428911
C	 2.5182764551	-0.931106004	 2.4055864916	-0.152125
O	 2.0484146053	-0.392731814	 1.2243140919	-0.180421
H	 1.2435510338	 1.4622303534	-0.4148151487	 0.238872
H	-0.2604996529	 1.7130168669	-0.980300425	 0.232609
H	-1.1399653679	-0.0376856694	 0.4293023797	 0.140707
H	 0.0599770267	-0.6792201486	-0.7012701871	 0.106579
H	 0.4436831901	-2.011163974	 4.537446086	 0.307165
H	 3.5811563282	-0.9508644898	 2.5553407646	 0.145338
48.0257	148.7729	212.0875	285.7994	321.1361	359.3799	397.4454	487.7652	624.3474	660.1162	707.1633	739.3622	763.4171	856.3351	967.3529	1017.1884	1024.437	1076.512	1117.5452	1167.9475	1178.8341	1268.8847	1301.0097	1350.8173	1402.5853	1427.6266	1498.6661	1614.8107	1656.5369	1701.1748	2937.9765	3101.7575	3317.8498	3495.0836	3574.7298	3807.2089
NCC1=NC(O)=CO1	NCc1nc(O)co1	
InChI=1S/C4H6N2O2/c5-1-4-6-3(7)2-8-4/h2,7H,1,5H2	InChI=1S/C4H6N2O2/c5-1-4-6-3(7)2-8-4/h2,7H,1,5H2
