16
gdb 284	4.73706	2.78011	2.2501	2.5905	56.8	-0.2389	-0.0081	0.2308	650.5524	0.140412	-271.665153	-271.657306	-271.656362	-271.697004	27.077	
C	 0.0125817244	 1.4824506954	 0.058895614	-0.387577
C	-0.0241213126	-0.0589260215	-0.0184718347	-0.059562
C	-1.4615207853	-0.5851420506	 0.0202063293	-0.383078
C	 0.6922650519	-0.4938494216	-1.3017141647	 0.394678
C	 2.1917164913	-0.7136878296	-1.2020422528	-0.480035
O	 0.0950170734	-0.6402224727	-2.3436747117	-0.309228
H	 1.0352271659	 1.8725648706	 0.0394441919	 0.115813
H	-0.5324301619	 1.9181412253	-0.7844984536	 0.134736
H	-0.45868753	 1.8265891983	 0.9844812772	 0.120829
H	 0.540002565	-0.4532292496	 0.8367271964	 0.075822
H	-2.008635304	-0.2533524815	-0.8656185842	 0.138379
H	-1.4849435677	-1.6790104651	 0.0326192942	 0.11517
H	-1.9815642778	-0.2224914192	 0.9121314357	 0.106777
H	 2.6814633802	 0.1114725762	-0.6744940121	 0.134569
H	 2.3843212376	-1.6206370038	-0.6156877896	 0.142113
H	 2.6221775395	-0.8325166106	-2.1971158055	 0.140593
46.2091	140.0306	197.5378	225.2764	234.6214	284.9297	324.2737	431.0625	591.5776	602.3557	730.0266	887.1421	931.2693	954.5006	970.7895	1005.1063	1119.0653	1126.8536	1164.9173	1207.9769	1324.4821	1366.4457	1383.4017	1396.2765	1417.4434	1462.4652	1475.9292	1485.5461	1488.6611	1502.1075	1511.3331	1810.9123	3021.5744	3033.9185	3035.4288	3042.907	3094.6881	3104.8251	3108.7218	3111.9289	3128.4064	3150.8465
CC(C)C(C)=O	CC(C)C(=O)C	
InChI=1S/C5H10O/c1-4(2)5(3)6/h4H,1-3H3	InChI=1S/C5H10O/c1-4(2)5(3)6/h4H,1-3H3
