15
gdb 2159	3.66433	2.93351	1.74432	1.7816	56.75	-0.2424	-0.0247	0.2177	714.6572	0.125	-345.678211	-345.671405	-345.670461	-345.709025	24.636	
C	-0.207975814	 1.547265884	 0.0110733673	-0.40727
C	 0.0617031623	 0.0466612419	-0.0187619979	-0.099461
C	 0.8776192279	-0.5059918491	-1.1939366885	-0.098236
O	 1.4491832471	-1.7286339769	-0.7224760262	-0.248756
C	 1.8178565807	-1.5380216697	 0.6289605403	-0.180477
C	 0.8906939108	-0.4475665935	 1.1723498655	 0.365258
O	 0.8467956405	-0.0415475306	 2.3032443008	-0.306314
H	 0.7199127911	 2.1151052217	-0.1142509355	 0.122609
H	-0.8981667276	 1.8451951781	-0.7832875097	 0.119648
H	-0.6425973429	 1.8280336727	 0.9740172967	 0.143696
H	-0.8875533575	-0.5065275663	 0.0321875915	 0.11546
H	 0.2854521966	-0.7417070995	-2.0805075741	 0.118967
H	 1.6673939205	 0.2081741887	-1.4822175095	 0.094907
H	 1.7108710865	-2.4782669645	 1.1781094544	 0.139212
H	 2.8621050681	-1.1974665071	 0.7328970748	 0.120757
97.6223	187.2736	208.9805	238.7254	347.2583	458.7001	568.031	583.1093	658.8664	733.9117	899.334	929.6614	953.7792	955.4538	1051.675	1090.8908	1121.8659	1158.2516	1170.4114	1210.9801	1246.5488	1295.9436	1307.1683	1332.0343	1392.3976	1411.3806	1475.7679	1496.162	1497.3284	1517.9186	1857.2218	2965.2359	2972.0674	3011.0713	3041.0065	3085.1866	3105.8459	3109.8777	3123.6231
CC1COCC1=O	C[C@H]1COCC1=O	
InChI=1S/C5H8O2/c1-4-2-7-3-5(4)6/h4H,2-3H2,1H3	InChI=1S/C5H8O2/c1-4-2-7-3-5(4)6/h4H,2-3H2,1H3/t4-/m0/s1
