10
gdb 356	10.36953	2.31178	1.91314	3.7746	40.92	-0.2683	-0.0862	0.1821	600.9282	0.070937	-342.329232	-342.322736	-342.321792	-342.359811	20.46	
C	-0.0421836455	 1.3750844578	 0.059582776	-0.245796
O	 0.0305270893	-0.055387128	-0.0489301604	-0.221702
C	 0.6555649059	-0.5185640717	-1.1431805833	 0.351199
O	 1.1434687989	 0.1502579486	-2.0114026611	-0.326917
C	 0.6473957776	-2.0546051658	-1.1078316676	 0.085978
O	 1.1461196993	-2.7102924532	-1.9769716006	-0.199455
H	 0.962326107	 1.804379898	 0.0849579843	 0.15136
H	-0.5833720038	 1.7924145388	-0.7930177477	 0.151362
H	-0.5719791948	 1.5772871528	 0.9895515063	 0.14344
H	 0.1469418061	-2.4916173474	-0.2207142359	 0.110531
83.8171	117.4977	198.8393	215.4766	324.2653	463.8865	603.6728	737.3447	909.608	1010.3483	1018.3483	1178.6731	1202.6261	1235.2479	1402.1097	1472.9944	1482.3318	1493.4535	1838.9454	1849.0787	2940.0013	3056.2273	3133.0362	3169.7403
COC(=O)C=O	COC(=O)C=O	
InChI=1S/C3H4O3/c1-6-3(5)2-4/h2H,1H3	InChI=1S/C3H4O3/c1-6-3(5)2-4/h2H,1H3
