17
gdb 2090	4.72979	2.4736	1.73387	1.073	65.75	-0.2415	0.0257	0.2671	750.24	0.149376	-309.730988	-309.72426	-309.723316	-309.761296	25.763	
C	-0.0120889875	 1.5229095165	 0.0614804025	-0.401622
C	 0.0286467963	 0.0050036168	-0.0198944963	 0.143243
C	 0.762297509	-0.518925146	-1.2618261731	-0.247643
C	 1.0449578062	-1.992099741	-1.1258289081	-0.067979
C	 0.9599235962	-2.6088376855	 0.0498352564	-0.064037
C	 0.6254041383	-1.8628949569	 1.3119796431	-0.113644
O	 0.6749972181	-0.4585630183	 1.1621193457	-0.261234
H	 1.00383664	 1.9256598224	 0.1216196068	 0.123575
H	-0.5013965243	 1.9436314981	-0.8223922749	 0.111893
H	-0.5605256503	 1.8443284872	 0.9508986336	 0.121232
H	-1.0029225657	-0.388677056	-0.039881016	 0.063128
H	 0.152804494	-0.3288573736	-2.154856229	 0.100842
H	 1.6981732945	 0.0403970307	-1.4051998218	 0.10902
H	 1.3133832801	-2.5442588426	-2.0226202733	 0.087275
H	 1.1293007829	-3.6782238428	 0.1444382032	 0.088813
H	-0.3686851221	-2.1794924095	 1.6816140887	 0.093019
H	 1.3443881642	-2.1089295094	 2.1032145224	 0.11412
141.0262	201.3167	231.3783	309.9914	388.4152	463.0099	475.538	536.4267	668.8989	778.2914	844.9804	903.1239	919.7142	936.3717	991.4146	996.8757	1036.2249	1076.4638	1122.5427	1128.6314	1158.9038	1210.6609	1234.2966	1270.1012	1321.6054	1372.512	1391.3475	1405.4535	1407.509	1416.6864	1467.4066	1483.8357	1487.1067	1500.9621	1727.9942	2923.293	2946.0662	3005.1348	3040.7111	3043.2855	3043.8928	3113.9283	3120.7499	3150.5027	3173.9874
CC1CC=CCO1	C[C@H]1CC=CCO1	
InChI=1S/C6H10O/c1-6-4-2-3-5-7-6/h2-3,6H,4-5H2,1H3	InChI=1S/C6H10O/c1-6-4-2-3-5-7-6/h2-3,6H,4-5H2,1H3/t6-/m0/s1
