14
gdb 4684	6.52468	1.32329	1.10777	3.1128	76.28	-0.2112	-0.0084	0.2029	1026.7743	0.107596	-341.605347	-341.597805	-341.59686	-341.637245	27.586	
C	 0.0015646116	 1.4767329412	 0.0687299391	-0.506602
C	-0.0025192956	-0.0116081821	-0.0280109474	 0.346709
N	-0.0600615324	-0.7135848042	-1.1451423364	-0.2821
C	-0.0405065592	-2.0275606186	-0.7667649679	-0.189519
C	 0.0301393029	-2.1445895345	 0.6065327926	 0.167489
N	 0.0533542852	-0.8314856007	 1.0588041102	-0.350918
C	 0.0746786308	-3.2543854289	 1.4681593046	 0.248523
C	 0.1130873305	-4.201804842	 2.2125380181	-0.445082
H	 0.9072098492	 1.850274648	 0.5600989139	 0.135491
H	-0.0407382068	 1.8902359322	-0.9393442804	 0.161771
H	-0.8601704767	 1.8502351206	 0.6337242034	 0.135903
H	-0.0773610217	-2.8305440309	-1.4864726058	 0.117532
H	 0.1030418173	-0.5554870061	 2.0256246099	 0.268647
H	 0.1464645148	-5.043204114	 2.8590279661	 0.192157
85.5721	136.975	144.7708	269.2865	337.655	462.733	516.7702	536.6571	540.0789	556.475	676.9724	678.4091	696.147	710.4382	861.4414	987.7239	1009.0119	1047.4564	1062.9362	1184.9645	1212.7129	1296.2625	1361.5398	1410.8933	1428.8317	1483.5091	1498.2217	1516.5482	1601.6864	2227.29	3032.3311	3082.5368	3152.1574	3259.0033	3502.8916	3660.149
CC1=NC=C(N1)C#C	Cc1ncc([nH]1)C#C	
InChI=1S/C6H6N2/c1-3-6-4-7-5(2)8-6/h1,4H,2H3,(H,7,8)	InChI=1S/C6H6N2/c1-3-6-4-7-5(2)8-6/h1,4H,2H3,(H,7,8)
