11
gdb 895	7.05598	2.19625	1.67491	4.6832	47.88	-0.1833	0.0512	0.2345	666.7767	0.079218	-376.622507	-376.61597	-376.615026	-376.652743	23.522	
O	-0.1204735041	 1.355280325	 0.0112088628	-0.425202
C	 0.0711763206	 0.0176402193	 0.0026453821	 0.386468
C	 1.164805424	-0.772196368	-0.0079684766	-0.246811
N	 0.6843352957	-2.0986378734	-0.0127727003	-0.334894
C	-0.6950913942	-2.1432577754	-0.0051881746	 0.449738
O	-1.4329804699	-3.1081689707	-0.0064857787	-0.43201
N	-1.0516522007	-0.7893987088	 0.0044363545	-0.379449
H	 0.7366256358	 1.7935133821	 0.0091586549	 0.310609
H	 2.2122572436	-0.531303016	-0.0125576304	 0.128152
H	 1.2414218896	-2.9332697888	-0.0204908696	 0.267814
H	-2.0046682905	-0.4716404254	 0.0114982659	 0.275584
112.986	221.6897	245.3191	346.436	359.4978	452.224	533.315	598.9303	639.5743	639.6535	753.0106	759.6755	977.9333	1026.7353	1081.3698	1158.4541	1207.1239	1296.1414	1363.9708	1385.2253	1513.2421	1714.0508	1848.823	3294.2936	3698.183	3707.8041	3837.1307
OC1=CNC(=O)N1	Oc1c[nH]c(=O)[nH]1	
InChI=1S/C3H4N2O2/c6-2-1-4-3(7)5-2/h1,6H,(H2,4,5,7)	InChI=1S/C3H4N2O2/c6-2-1-4-3(7)5-2/h1,6H,(H2,4,5,7)
