19
gdb 1815	3.82247	2.04489	1.94171	1.6774	66.77	-0.2615	0.0811	0.3426	799.3187	0.169606	-310.906738	-310.898496	-310.897552	-310.938503	30.942	
C	-0.2002744214	 1.5402278969	-0.0503290909	-0.425488
C	-0.0984507877	 0.0066086047	-0.0233147129	 0.23515
C	 0.8427292823	-0.4248240073	 1.1194722645	-0.404501
C	-1.4909747913	-0.6169819583	 0.1816062418	-0.408257
C	 0.4796234169	-0.5448053837	-1.323353195	 0.104456
C	 0.4315241059	 0.1236865193	-2.6299053759	-0.194462
O	 1.641151822	 0.0869903199	-1.8656190776	-0.247439
H	 0.7561296925	 1.9857102432	-0.3380319102	 0.132605
H	-0.9669049107	 1.8832889333	-0.752524001	 0.107774
H	-0.4710955927	 1.9195521118	 0.9399641302	 0.109343
H	 0.4585075857	-0.0873339445	 2.0876797792	 0.108365
H	 0.9426937475	-1.5151263219	 1.1605152984	 0.107762
H	 1.8414471757	-0.0000801056	 0.979937279	 0.129015
H	-2.1753834121	-0.3349134029	-0.6255997634	 0.112456
H	-1.4384341524	-1.7111273471	 0.2117205706	 0.110723
H	-1.9286967853	-0.2800680173	 1.1270609536	 0.114017
H	 0.5402715149	-1.6366320991	-1.3376859818	 0.082943
H	 0.4372158352	-0.4748915324	-3.5401210493	 0.111747
H	-0.0239894853	 1.106334151	-2.7281016692	 0.113791
86.2734	208.3616	227.1637	257.6175	260.6962	287.9107	324.9557	356.5244	387.3372	491.7164	520.9013	706.2276	836.6267	869.06	936.5293	940.4029	951.0056	961.451	994.8506	1041.8421	1069.216	1106.3482	1160.6747	1180.6924	1232.6962	1243.283	1275.3198	1319.2648	1392.5041	1396.8069	1413.6597	1444.3128	1479.3493	1487.7291	1492.1398	1501.8149	1505.9495	1524.6505	1531.3053	3024.9629	3029.1601	3036.9409	3067.6047	3090.308	3092.2482	3097.0206	3097.3707	3102.3675	3109.0202	3118.4117	3178.0386
CC(C)(C)C1CO1	CC(C)(C)[C@H]1CO1	
InChI=1S/C6H12O/c1-6(2,3)5-4-7-5/h5H,4H2,1-3H3	InChI=1S/C6H12O/c1-6(2,3)5-4-7-5/h5H,4H2,1-3H3/t5-/m1/s1
