17
gdb 3406	3.93275	2.6373	2.15025	1.5429	63.78	-0.2311	0.0902	0.3213	702.2989	0.148111	-309.678404	-309.67146	-309.670516	-309.708814	26.542	
C	 0.1719190075	 1.6412833153	-0.4238248751	-0.421416
C	 0.2333179844	 0.1427035577	-0.220417129	-0.012211
C	 1.4843483215	-0.664296857	-0.3517481973	 0.076476
O	 2.6197345847	 0.0513642824	 0.1477221464	-0.304428
C	 2.0932909941	-0.0415600329	 1.5079868016	 0.161147
C	 2.1773570816	 1.2384859493	 2.3156468964	-0.41338
C	 0.7747211783	-0.6161428609	 0.9874652976	-0.179629
H	 1.1599964911	 2.0887538664	-0.3024894641	 0.138578
H	-0.1719457095	 1.8676455564	-1.4390034518	 0.112538
H	-0.5201103826	 2.1223273207	 0.2755458448	 0.113456
H	-0.6260222652	-0.3954942892	-0.6194545694	 0.087526
H	 1.6684313165	-1.4657273763	-1.0588332155	 0.097915
H	 2.6500378979	-0.8343092421	 2.0277983453	 0.081296
H	 1.5887443479	 2.0469789928	 1.8806602077	 0.126158
H	 1.8123847566	 1.0537364577	 3.331996876	 0.117368
H	 3.2195220905	 1.5669212126	 2.3885423182	 0.126505
H	 0.1928629049	-1.3752708529	 1.4938495682	 0.092103
170.1404	190.5654	221.8263	254.1127	298.7257	377.4177	539.8983	617.2987	697.2415	730.3813	799.6114	848.5416	886.8035	911.6997	996.2998	1012.4188	1026.6883	1057.0706	1078.8221	1090.6585	1105.9244	1147.2116	1159.399	1207.1835	1263.696	1309.0743	1340.1366	1394.9497	1408.1428	1410.0205	1443.9105	1483.5178	1493.9983	1500.6199	1509.2326	2997.7618	3034.6578	3041.7784	3089.4916	3101.9609	3114.9692	3135.1856	3148.9591	3169.794	3195.2773
CC1C2OC(C)C12	C[C@H]1[C@H]2O[C@@H](C)[C@@H]12	
InChI=1S/C6H10O/c1-3-5-4(2)7-6(3)5/h3-6H,1-2H3	InChI=1S/C6H10O/c1-3-5-4(2)7-6(3)5/h3-6H,1-2H3/t3-,4+,5-,6-/m1/s1
