16
gdb 4877	4.87287	1.33962	1.12015	4.0242	67.51	-0.1886	0.043	0.2316	1057.3558	0.131788	-379.990711	-379.982797	-379.981853	-380.023157	29.055	
C	 0.0284641613	 1.552105371	 0.201733574	-0.369732
C	-0.016923591	 0.042675047	-0.0968215893	-0.300776
C	-1.395225666	-0.5271592443	-0.1165417983	 0.335701
C	-2.1117933148	-1.0746004123	-1.1219632113	-0.19258
N	-3.3578769963	-1.4383266404	-0.6105805021	-0.334118
C	-3.4562716665	-1.1313020102	 0.7398115638	 0.439184
O	-4.3900408698	-1.3153365257	 1.4956249622	-0.434267
N	-2.2177233819	-0.5601871951	 1.0145734285	-0.396967
H	 1.06067188	 1.9147232173	 0.2057198307	 0.118547
H	-0.5320461127	 2.1138448359	-0.551122916	 0.127289
H	-0.4081504183	 1.7814453057	 1.1792060178	 0.116696
H	 0.4428111447	-0.1543527007	-1.0708402958	 0.116047
H	 0.5956449975	-0.4897157567	 0.6442339864	 0.111185
H	-1.842550793	-1.2356541785	-2.1516456037	 0.133606
H	-4.1085520126	-1.8817515551	-1.1081735556	 0.266774
H	-1.9808596006	-0.2395264779	 1.9366110788	 0.26341
73.7039	124.7513	190.1014	209.0174	305.7662	359.8562	405.4861	485.1671	507.4984	599.6242	660.4711	706.5076	759.4758	760.9095	787.9132	949.4904	984.7329	1012.3414	1061.4026	1086.1432	1101.2894	1193.2823	1244.764	1282.5553	1347.4745	1375.6487	1391.6694	1409.7006	1428.7388	1478.6021	1496.7994	1505.0489	1689.769	1843.9099	3010.1324	3038.8764	3072.899	3108.7154	3117.4685	3282.9015	3694.3162	3703.4625
CCC1=CNC(=O)N1	CCc1c[nH]c(=O)[nH]1	
InChI=1S/C5H8N2O/c1-2-4-3-6-5(8)7-4/h3H,2H2,1H3,(H2,6,7,8)	InChI=1S/C5H8N2O/c1-2-4-3-6-5(8)7-4/h3H,2H2,1H3,(H2,6,7,8)
