15
gdb 4154	3.76675	1.40466	1.15112	2.1314	66.29	-0.2458	-0.0312	0.2147	1018.1858	0.11689	-399.753014	-399.744986	-399.744042	-399.786311	28.329	
O	-0.2118624564	 1.4011098889	-0.0457400667	-0.388045
N	-0.0150052576	 0.0424542165	 0.2506489842	-0.226956
C	-1.0681550293	-0.6263252829	 0.0364283628	 0.406277
C	-2.4829077023	-0.3606755722	-0.4330695766	-0.317028
C	-2.7943596709	-1.8740579288	-0.194226436	-0.236548
C	-1.3134865211	-2.1216038099	 0.2162915226	-0.187921
C	-0.485235758	-2.9648310481	-0.7350373586	 0.144549
O	-0.9285294837	-3.5624070672	-1.6805982692	-0.231786
H	 0.6462530775	 1.7833846173	 0.1681076606	 0.309692
H	-3.0339972872	 0.3503555834	 0.1885283873	 0.132168
H	-2.5515652621	-0.0266007066	-1.4726498556	 0.136625
H	-3.5127592819	-2.0626483757	 0.6039894776	 0.112638
H	-3.081924416	-2.434495492	-1.0839339497	 0.136426
H	-1.1349266978	-2.4791701189	 1.2371241481	 0.113288
H	 0.6015331467	-2.9697455439	-0.5019525008	 0.096622
56.1029	71.9347	166.3149	215.8583	258.4209	332.6035	383.1672	477.9458	525.236	656.6782	688.0867	755.4686	814.3664	892.6313	936.82	948.9229	991.5185	1036.7793	1078.6127	1110.5139	1159.4101	1188.586	1220.4445	1237.451	1272.4368	1302.9469	1401.8508	1413.7419	1455.7273	1486.0677	1771.1027	1827.8203	2902.347	3046.7462	3059.886	3092.5609	3104.0854	3151.9979	3815.5493
ON=C1CCC1C=O	ON=C1CC[C@H]1C=O	
InChI=1S/C5H7NO2/c7-3-4-1-2-5(4)6-8/h3-4,8H,1-2H2	InChI=1S/C5H7NO2/c7-3-4-1-2-5(4)6-8/h3-4,8H,1-2H2/t4-/m0/s1
