15
gdb 4504	3.75723	1.75019	1.21063	1.3549	64.75	-0.1855	0.0471	0.2326	961.5515	0.120093	-396.020784	-396.012782	-396.011838	-396.052865	29.418	
C	-0.1075056135	 1.4687503982	 0.010006429	-0.498
C	-0.0270866724	-0.019897525	-0.0311984648	 0.324923
N	-0.0837110071	-0.7742934871	-1.1020615845	-0.327304
C	 0.0310728829	-2.0825798047	-0.662072753	 0.080785
N	 0.0238814078	-3.2567480093	-1.4564789721	-0.619832
C	 0.1579381658	-2.0973718877	 0.697730795	 0.368275
O	 0.2970935686	-3.1055720277	 1.5836446349	-0.440367
N	 0.121895208	-0.7899491208	 1.1066991937	-0.348291
H	 0.7957260827	 1.919671585	 0.4391075429	 0.126565
H	-0.2221769485	 1.8356961639	-1.0107911671	 0.154181
H	-0.9623106359	 1.8202327354	 0.6008213956	 0.12659
H	 0.7766823501	-3.2375648428	-2.1395612797	 0.239696
H	-0.8387088405	-3.3290219158	-1.9897648776	 0.239695
H	 0.2931975803	-3.9122799912	 1.0489404201	 0.307471
H	 0.1921832717	-0.4723090505	 2.0587639174	 0.265612
101.3294	176.5456	210.1855	244.8184	271.9599	280.1882	353.1661	470.6863	479.1115	522.808	614.1543	672.3229	691.2479	695.4371	836.9238	884.5755	984.9377	1033.1099	1059.5118	1156.8698	1210.6257	1220.3385	1244.3842	1337.0357	1407.4888	1431.1187	1480.8403	1494.4971	1533.8579	1588.1613	1647.4021	1707.2685	3021.177	3066.5326	3145.8091	3477.6844	3535.616	3665.1004	3759.9874
CC1=NC(N)=C(O)N1	Cc1nc(N)c(O)[nH]1	
InChI=1S/C4H7N3O/c1-2-6-3(5)4(8)7-2/h8H,5H2,1H3,(H,6,7)	InChI=1S/C4H7N3O/c1-2-6-3(5)4(8)7-2/h8H,5H2,1H3,(H,6,7)
