16
gdb 4856	6.63778	1.28355	1.09035	2.8899	68.62	-0.1918	0.0468	0.2386	1078.6427	0.131047	-379.955765	-379.947677	-379.946733	-379.988428	28.773	
C	-0.5055886179	 0.7927532997	-0.4360386577	-0.24912
O	 0.6159431589	 0.9861182645	 0.4128338062	-0.26199
C	 0.7765711498	 0.026600854	 1.3454074535	 0.400526
C	 0.1148976354	-1.1205463526	 1.6936014211	-0.242328
N	 0.7615493296	-1.7170723886	 2.7644861057	-0.28985
C	 1.7845897022	-0.9531773106	 3.0556841265	 0.342209
C	 2.7804194407	-1.185477089	 4.1407910558	-0.497346
N	 1.8386719144	 0.1342498099	 2.2107365838	-0.374453
H	-1.4375287169	 0.7831043104	 0.1428393462	 0.130567
H	-0.5147475355	 1.6302797464	-1.1344136029	 0.13676
H	-0.4191609491	-0.1503191905	-0.9899740944	 0.130586
H	-0.7691616261	-1.5510339258	 1.2533118078	 0.101392
H	 3.799619035	-1.2914410435	 3.7498180809	 0.126835
H	 2.7917190314	-0.3684219633	 4.8723338094	 0.126804
H	 2.5139059826	-2.1073151144	 4.6594946026	 0.155934
H	 2.5132259155	 0.8809176734	 2.2039350354	 0.263473
79.785	102.7221	185.9455	200.9625	217.5252	323.4324	362.0444	477.0718	492.5672	644.5293	673.167	691.0946	718.0929	772.9651	985.4065	987.4014	1043.5457	1061.6116	1088.7118	1165.5588	1183.9705	1213.8248	1230.1613	1288.9691	1405.2883	1429.6778	1444.3423	1471.9535	1481.0673	1481.9948	1494.2161	1509.1386	1580.1883	1640.7748	3011.6105	3023.3368	3069.6475	3072.0573	3143.8128	3145.8089	3263.4956	3663.5052
COC1=CN=C(C)N1	COc1cnc(C)[nH]1	
InChI=1S/C5H8N2O/c1-4-6-3-5(7-4)8-2/h3H,1-2H3,(H,6,7)	InChI=1S/C5H8N2O/c1-4-6-3-5(7-4)8-2/h3H,1-2H3,(H,6,7)
