17
gdb 1335	5.28106	1.6309	1.47048	2.1917	60.72	-0.2586	0.0813	0.3399	883.8784	0.146082	-346.839235	-346.830952	-346.830008	-346.871645	29.775	
C	 0.0483061551	 1.5020056963	-0.1386995064	-0.457541
C	-0.0430903571	 0.0182755466	 0.149057089	 0.397952
C	-1.1632575249	-0.6965369544	-0.5791381837	-0.451147
O	 1.2087137092	-0.6947369476	 0.1460744261	-0.306883
C	 0.4850527966	-0.589170179	 1.3865668109	-0.013048
C	 1.2108560733	 0.1297046761	 2.4969792699	-0.089786
O	 2.3025164203	-0.6477133831	 2.9632055464	-0.418278
H	 0.9235683046	 1.9564319485	 0.3263359107	 0.130087
H	 0.1192068834	 1.6655469802	-1.2195917248	 0.126347
H	-0.8481391336	 2.0211630331	 0.2170796562	 0.122919
H	-1.052392462	-0.5737040855	-1.6620177603	 0.125405
H	-1.1553238814	-1.7654048508	-0.3534538518	 0.128746
H	-2.1374601519	-0.2852745932	-0.2935272163	 0.120987
H	 0.0383188507	-1.5335669703	 1.7056362113	 0.08976
H	 1.541991411	 1.1240147029	 2.1697890102	 0.090668
H	 0.5411384728	 0.2639810951	 3.353713649	 0.110714
H	 2.8511787839	-0.8363654249	 2.1930592836	 0.293098
68.0742	141.8287	170.6623	211.937	236.1875	324.9532	369.7692	410.9072	429.7542	470.9245	547.001	704.1971	807.0999	887.1947	943.5229	958.692	997.607	1057.8063	1068.1389	1118.0899	1136.9779	1154.7459	1222.7123	1264.259	1339.9511	1371.2675	1409.3428	1418.8078	1422.8911	1465.3594	1473.5794	1486.2132	1495.8776	1502.0888	1520.0637	3015.6507	3034.025	3040.578	3069.6454	3090.5285	3095.0531	3100.5337	3125.9452	3143.9539	3798.3918
CC1(C)OC1CO	CC1(C)O[C@H]1CO	
InChI=1S/C5H10O2/c1-5(2)4(3-6)7-5/h4,6H,3H2,1-2H3	InChI=1S/C5H10O2/c1-5(2)4(3-6)7-5/h4,6H,3H2,1-2H3/t4-/m0/s1
