15
gdb 3557	4.99153	2.91736	2.6079	1.4278	59.68	-0.2445	0.079	0.3235	586.4221	0.126757	-308.462382	-308.456812	-308.455868	-308.49132	22.571	
O	-0.0583978813	 1.4725171265	-0.0983142798	-0.438308
C	-0.0228035393	 0.0631843667	-0.0960850338	 0.153476
C	-1.3636471702	-0.6399505728	-0.1129587821	-0.084813
C	-1.7894306761	-0.7926245651	-1.5781642723	-0.05874
C	-0.7138964129	-0.1319861921	-2.4394630722	-0.2201
C	 0.3002157415	-0.7060348834	-1.4149618415	-0.121794
C	-0.7965213074	-1.7536120351	-0.9722158616	-0.083861
H	 0.8441763454	 1.7993673459	-0.0272690255	 0.279421
H	 0.5955184271	-0.321622484	 0.7270771871	 0.063474
H	-2.0804017763	-0.7227612641	 0.6935294915	 0.084129
H	-2.8261973099	-0.9817472368	-1.8252265275	 0.083339
H	-0.6241577921	-0.6261297746	-3.4105875197	 0.092412
H	-0.7323185848	 0.9551832133	-2.561937543	 0.10036
H	 1.3293019111	-0.9225910154	-1.6959803899	 0.062174
H	-0.7946272048	-2.8240529491	-0.8348174998	 0.088833
225.5432	269.9861	315.5189	487.9215	585.7879	720.8742	737.9742	791.4293	799.7194	818.85	882.5351	923.4612	966.213	989.4039	996.4464	1013.2668	1030.6898	1045.6896	1061.1491	1121.6378	1148.4632	1161.6363	1170.963	1207.9376	1230.0759	1260.986	1302.8347	1338.7379	1368.413	1433.7941	1490.891	3005.0902	3050.5418	3107.4907	3129.6427	3194.45	3203.4543	3235.2019	3814.986
OC1C2C3CC1C23	O[C@H]1[C@H]2[C@H]3C[C@@H]1[C@@H]23	
InChI=1S/C6H8O/c7-6-3-1-2-4(3)5(2)6/h2-7H,1H2	InChI=1S/C6H8O/c7-6-3-1-2-4(3)5(2)6/h2-7H,1H2/t2-,3+,4-,5-,6+/m0/s1
