13
gdb 4324	3.9931	1.88201	1.27913	4.9388	66.08	-0.206	-0.0364	0.1696	872.9604	0.096656	-398.632763	-398.626189	-398.625245	-398.663387	25.356	
O	-0.023930581	 1.3627011473	 0.0084097437	-0.423247
C	-0.0034062895	 0.0096596057	 0.0007437046	 0.407991
C	-1.1682531103	-0.6816056941	 0.0034619748	-0.269356
C	-1.1872557901	-2.1224739946	-0.0044467074	 0.389854
N	-2.2374723534	-2.8358248686	-0.0025207309	-0.545038
O	 0.0784513408	-2.756307449	-0.0151174077	-0.239292
C	 1.2134276139	-2.0432428481	-0.0175556407	 0.099132
C	 1.2532100127	-0.7005488016	-0.0102993663	-0.318692
H	 0.877329232	 1.700734944	 0.0051468049	 0.304588
H	-2.1245735017	-0.1775938988	 0.0116541723	 0.127792
H	-2.0015601448	-3.8275695636	-0.0093805438	 0.218037
H	 2.0902695271	-2.6800675511	-0.0260529481	 0.141449
H	 2.2047716843	-0.1832702274	-0.0127842256	 0.106783
139.133	202.595	342.7091	352.51	404.0741	459.4647	510.3189	574.6808	671.5259	695.3672	747.2325	748.7509	817.9119	843.2151	873.4926	929.7743	986.27	1072.9177	1110.553	1197.9374	1246.4767	1272.6372	1307.4683	1387.3224	1475.9205	1621.2143	1703.4202	1751.1353	3197.8494	3217.6614	3236.8982	3499.4582	3829.2723
OC1=CC(=N)OC=C1	O[C@@H]1C=C([NH])OC=C1	
InChI=1S/C5H5NO2/c6-5-3-4(7)1-2-8-5/h1-3,6-7H	InChI=1S/C5H6NO2/c6-5-3-4(7)1-2-8-5/h1-4,6-7H/t4-/m0/s1
