13
gdb 867	6.80587	2.19976	1.68265	1.9777	56.83	-0.1993	0.0322	0.2315	716.5148	0.103202	-340.679724	-340.673242	-340.672298	-340.709771	23.815	
C	 0.1057552295	 1.4599435023	 0.0508807435	-0.493697
C	-0.0567059089	-0.0097898107	-0.0467335743	 0.320577
C	-1.0853495231	-0.8623053568	-0.2406968805	-0.189388
N	-0.6347112796	-2.1843419961	-0.2274290727	-0.336979
C	 0.6407541331	-2.0617512326	-0.0362838675	 0.445832
N	 1.5934063495	-3.052234402	-0.0123021735	-0.586673
O	 1.0872393681	-0.7913472739	 0.0870782882	-0.215084
H	 0.7784933423	 1.8486476684	-0.7227141561	 0.136879
H	-0.8670611886	 1.9419382229	-0.072510423	 0.138828
H	 0.5140732615	 1.7625676204	 1.0225366129	 0.134472
H	-2.1279718871	-0.6254734709	-0.3850615675	 0.114057
H	 1.1950532381	-3.9651394121	 0.1520962386	 0.269304
H	 2.3903849553	-2.8536384589	 0.575117342	 0.261871
163.228	196.5438	264.605	301.4699	330.2712	450.2186	612.2081	628.2583	639.5335	744.6903	773.4834	847.1104	954.9837	987.301	1040.2035	1068.3174	1089.6331	1197.125	1235.0064	1268.9988	1419.0276	1435.0436	1470.8118	1495.6109	1604.7534	1668.125	1682.8789	3024.3891	3072.0179	3124.6369	3258.7673	3571.8187	3679.5311
CC1=CN=C(N)O1	Cc1cnc(N)o1	
InChI=1S/C4H6N2O/c1-3-2-6-4(5)7-3/h2H,1H3,(H2,5,6)	InChI=1S/C4H6N2O/c1-3-2-6-4(5)7-3/h2H,1H3,(H2,5,6)
