13
gdb 4277	4.12112	2.01728	1.35505	4.8312	64.91	-0.221	-0.03	0.1909	836.5965	0.099408	-391.01982	-391.013192	-391.012248	-391.05051	25.136	
N	-0.0028285076	 1.3473087264	 0.1219763368	-0.569496
C	 0.0442472869	-0.0070578237	 0.0427076985	 0.514702
N	-1.1199697937	-0.6911935333	 0.033287711	-0.349986
H	-2.0193499012	-0.2337965392	 0.0869418548	 0.26542
C	-1.1573532938	-2.1070551147	-0.0073036931	 0.411082
N	-2.3102846445	-2.6495233953	-0.0115525546	-0.571624
N	 0.0780097334	-2.7336058829	-0.035215347	-0.306926
C	 1.132757859	-1.9714710876	-0.0193444226	 0.065946
N	 1.2130677549	-0.6106918703	 0.0123181151	-0.351623
H	 0.8772225073	 1.8125768114	-0.0325750976	 0.280806
H	-0.8371149992	 1.8438409726	-0.1424896496	 0.266768
H	-2.1910718131	-3.6606594633	-0.0397577032	 0.225811
H	 2.0979180515	-2.47607873	-0.0387703085	 0.119119
122.0685	193.6596	317.3883	347.1394	422.3561	487.487	499.605	563.224	601.7662	621.3458	747.6403	783.9015	824.5857	858.402	959.9098	1015.2564	1025.2923	1047.7672	1105.4983	1278.4348	1321.8777	1336.9081	1420.114	1519.673	1585.8095	1639.1795	1661.7859	1737.4448	3144.3179	3515.6196	3599.9591	3605.0889	3724.775
NC1=[NH+]C(=N)N=C[N-]1	N[C@@H]1NC(=NC=N1)[NH]	
InChI=1S/C3H4N5/c4-2-6-1-7-3(5)8-2/h1H,(H3-,4,5,6,7,8)/q-1/p+1	InChI=1S/C3H6N5/c4-2-6-1-7-3(5)8-2/h1-2,5H,4H2,(H,6,7,8)/t2-/m0/s1
