15
gdb 4849	6.64433	1.31105	1.11177	2.9078	65.29	-0.1936	0.0337	0.2273	1042.6856	0.120176	-396.0068	-395.99885	-395.997906	-396.039136	28.443	
C	 0.0503918825	 1.3547858169	-0.0909227848	-0.318324
N	-0.0494370008	-0.0840555757	 0.0943674688	-0.385981
C	-1.285972403	-0.6622382659	 0.057538883	 0.496249
N	-2.4419405399	-0.0707761266	 0.138248573	-0.359446
C	-3.3467127371	-1.1303933714	 0.126462156	-0.116084
C	-2.7039411368	-2.3117498864	 0.0268000034	 0.255433
N	-3.1212878264	-3.6338127515	-0.0356609776	-0.603995
O	-1.324904445	-2.0087632961	-0.02066889	-0.233119
H	 1.0784322742	 1.6646366223	 0.1089565513	 0.123246
H	-0.2353164891	 1.6801820987	-1.1006558176	 0.12359
H	-0.6134870711	 1.8501594683	 0.6199686206	 0.161447
H	 0.6808009134	-0.6448280068	-0.3168298324	 0.249411
H	-4.4115803841	-0.9698691615	 0.1855609865	 0.117542
H	-2.8764738363	-4.0874611102	-0.9102767415	 0.244466
H	-2.7609463205	-4.198863874	 0.7267934812	 0.245566
97.6653	122.0754	179.2651	194.9054	235.4461	336.2178	373.3359	468.6103	528.1036	612.4487	694.6121	757.6923	759.8502	767.4552	873.2394	929.5732	993.2304	1099.1518	1144.8739	1156.7066	1181.375	1211.3767	1214.8441	1279.8464	1340.3144	1453.0688	1483.2276	1507.6307	1537.7798	1651.7292	1659.4391	1715.4778	3010.7578	3098.951	3142.737	3265.868	3491.7261	3556.0589	3624.3799
CNC1=NC=C(N)O1	CNc1ncc(N)o1	
InChI=1S/C4H7N3O/c1-6-4-7-2-3(5)8-4/h2H,5H2,1H3,(H,6,7)	InChI=1S/C4H7N3O/c1-6-4-7-2-3(5)8-4/h2H,5H2,1H3,(H,6,7)
