15
gdb 4867	4.60373	1.39103	1.1359	2.579	65.8	-0.1873	0.0266	0.2139	1022.7476	0.119345	-399.819296	-399.811378	-399.810434	-399.851893	28.751	
N	 0.235508215	 1.2787176606	-0.0370101658	-0.594115
C	-0.0319570663	-0.0825635446	-0.0279801642	 0.36572
C	-1.1735326831	-0.8171334595	 0.104808602	-0.257138
C	-0.7466071662	-2.1878323371	 0.1317335	-0.242624
C	 0.60425968	-2.1959678406	 0.0184584004	 0.32178
C	 1.6499199369	-3.2463772244	-0.0549459405	-0.181305
O	 2.2282427284	-3.4023453524	-1.351670255	-0.413936
O	 1.0551782566	-0.8868695856	-0.0781219988	-0.218504
H	 1.052785473	 1.5141539775	-0.5856204852	 0.254629
H	-0.5600664576	 1.8315141472	-0.324348606	 0.256888
H	-2.1798388102	-0.4372014524	 0.1752930745	 0.09683
H	-1.3761376861	-3.0602127527	 0.2190605971	 0.108128
H	 2.4358305177	-3.0497163441	 0.6915118458	 0.098378
H	 1.1937258468	-4.2087305711	 0.1919271684	 0.122583
H	 2.5762312851	-2.5422392708	-1.6084160328	 0.282683
64.8625	127.1102	172.597	230.9419	288.1709	310.0033	419.6592	437.5503	614.6184	642.9099	687.9795	715.6653	747.0317	768.1041	836.8975	931.7007	981.2542	1011.3498	1023.3456	1039.4827	1102.8293	1182.148	1242.6769	1264.2798	1300.1365	1367.6854	1414.4089	1444.7233	1487.0256	1605.7153	1645.1578	1672.9403	2977.8059	3098.8132	3249.4973	3265.7381	3547.0517	3648.0128	3818.5827
NC1=CC=C(CO)O1	Nc1ccc(CO)o1	
InChI=1S/C5H7NO2/c6-5-2-1-4(3-7)8-5/h1-2,7H,3,6H2	InChI=1S/C5H7NO2/c6-5-2-1-4(3-7)8-5/h1-2,7H,3,6H2
