10
gdb 761	9.64217	3.69719	2.68224	4.0185	44.3	-0.2126	0.0044	0.217	452.8301	0.075973	-297.523583	-297.518606	-297.517662	-297.55163	18.15	
N	-0.0027780854	 1.4059534576	 0.1662257987	-0.591332
C	-0.0629388617	 0.0198183996	 0.0510889495	 0.335961
C	-1.1494542886	-0.8297647018	 0.0393895149	-0.161583
N	-0.5780008237	-2.0642328365	-0.0189908061	-0.139615
N	 0.7546324751	-1.9983975039	-0.0345250959	-0.11658
N	 1.0740581283	-0.7305083704	 0.0026468453	-0.247894
H	 0.9240056266	 1.7440322972	-0.0601070671	 0.256527
H	-0.7000910961	 1.8938040789	-0.3790406565	 0.247772
H	-2.2135295738	-0.6753615266	 0.0715804931	 0.135618
H	-1.0279034107	-2.9648310441	-0.0478803259	 0.281126
226.7015	322.382	388.5957	548.2032	658.5195	700.2982	709.4091	728.5791	782.3843	988.8005	1038.6309	1060.0244	1121.6953	1140.9326	1281.3688	1337.0736	1392.1242	1509.7141	1619.7362	1651.8374	3292.4509	3546.5442	3641.1251	3661.1853
NC1=CNN=N1	Nc1c[nH]nn1	
InChI=1S/C2H4N4/c3-2-1-4-6-5-2/h1H,(H3,3,4,5,6)	InChI=1S/C2H4N4/c3-2-1-4-6-5-2/h1H,(H3,3,4,5,6)
