19
gdb 1360	3.01164	2.26872	1.94217	1.3601	67.7	-0.2379	0.0772	0.3152	813.2486	0.169222	-310.91227	-310.903513	-310.902569	-310.944426	32.405	
C	-0.2158229101	 0.9794382889	-1.8453536152	-0.412134
C	-0.0348142438	-0.188574483	-0.8993530389	-0.081094
C	 1.3212073133	-0.6127691781	-0.338134862	-0.048459
C	 2.6192581332	 0.0913066482	-0.6686733376	-0.414469
C	 0.2725628649	-0.0449097635	 0.579130441	 0.37868
C	 0.4161435884	 1.3014583787	 1.2531426367	-0.450388
O	-0.2918373167	-1.0223079697	 1.4267933041	-0.464644
H	 0.4586791717	 1.810657372	-1.6256583782	 0.11442
H	-0.0282033317	 0.6747497233	-2.8812700884	 0.11789
H	-1.2390348915	 1.3695999104	-1.7989090998	 0.11362
H	-0.6947377171	-1.026862322	-1.1100528044	 0.082021
H	 1.4266187564	-1.688609294	-0.2266316338	 0.093129
H	 2.5012357715	 1.1723904013	-0.7768336868	 0.112872
H	 3.3654832279	-0.0790494316	 0.1152460261	 0.120074
H	 3.036771056	-0.285897639	-1.6088529136	 0.117378
H	 0.9014106764	 2.0442635964	 0.6169058467	 0.116482
H	-0.568205267	 1.7010329382	 1.529129069	 0.104896
H	 1.0038351425	 1.2004136418	 2.1712766868	 0.125773
H	-1.2066629943	-0.7692767185	 1.5957785981	 0.273954
150.1299	162.164	172.511	212.3283	216.2757	266.2051	278.3386	331.9059	404.6535	465.7797	475.7785	529.0455	688.3499	783.1396	798.6947	915.3286	975.3076	1011.4061	1030.0707	1033.627	1085.4564	1106.9214	1147.9864	1158.9199	1176.2911	1237.6628	1292.2696	1345.0649	1363.0068	1411.0537	1415.1522	1427.505	1459.4404	1479.1019	1492.7825	1495.4343	1499.677	1501.4599	1526.3584	3023.5079	3028.6536	3033.6529	3081.5654	3085.8056	3087.9035	3104.819	3112.9486	3129.9841	3133.9425	3148.8411	3785.5002
CC1C(C)C1(C)O	C[C@H]1[C@@H](C)[C@]1(C)O	
InChI=1S/C6H12O/c1-4-5(2)6(4,3)7/h4-5,7H,1-3H3	InChI=1S/C6H12O/c1-4-5(2)6(4,3)7/h4-5,7H,1-3H3/t4-,5+,6+
