16
gdb 416	5.61124	2.75377	2.3805	1.3751	56.44	-0.2519	0.0723	0.3242	618.4343	0.141819	-271.621836	-271.614856	-271.613912	-271.652038	26.023	
C	 0.1416580132	 1.5089430893	 0.1811455977	-0.393613
C	-0.1305730993	 0.0267155792	-0.1008155477	-0.223064
C	 0.6509053041	-0.5103020642	-1.2852017896	 0.435726
O	 0.3516598749	 0.1096078096	-2.5127840935	-0.471777
C	 2.063207331	-1.0117611128	-1.0960912415	-0.320318
C	 0.9297289998	-1.9754798958	-1.4019988182	-0.301099
H	 1.2032489216	 1.6865050301	 0.3857873615	 0.115965
H	-0.1489158307	 2.1323487367	-0.6715375653	 0.112144
H	-0.429551774	 1.8580747409	 1.0462181498	 0.116365
H	 0.1158042012	-0.5694009236	 0.7856162527	 0.093374
H	-1.2003659757	-0.120413042	-0.2945262109	 0.104294
H	 0.7464345557	 0.9880230911	-2.5032879841	 0.281267
H	 2.7701688199	-0.8134047085	-1.8940241822	 0.111113
H	 2.4893994957	-1.0130412879	-0.098162974	 0.108093
H	 0.5818493653	-2.6342843264	-0.6137789583	 0.109881
H	 0.8931804772	-2.3957616757	-2.4001954462	 0.121651
101.3172	212.023	235.4481	300.7344	345.494	358.8915	425.4374	515.0944	693.5724	770.8594	789.0246	890.8407	908.8243	927.0228	979.2951	1005.6266	1043.9132	1074.4329	1077.0297	1112.2701	1187.768	1246.499	1297.2562	1311.9665	1351.5245	1397.9001	1406.8461	1452.4929	1476.333	1497.5591	1503.0879	1510.93	3026.8888	3031.1854	3063.9199	3098.5886	3106.9873	3129.0179	3137.6678	3214.8871	3231.5402	3803.4991
CCC1(O)CC1	CCC1(O)CC1	
InChI=1S/C5H10O/c1-2-5(6)3-4-5/h6H,2-4H2,1H3	InChI=1S/C5H10O/c1-2-5(6)3-4-5/h6H,2-4H2,1H3
