10
gdb 3934	6.15082	2.90846	1.97471	1.6498	50.52	-0.2466	-0.0757	0.1709	579.1534	0.069053	-355.508183	-355.503143	-355.502198	-355.536937	18.619	
O	 0.1020352238	 1.3301388575	-0.0955277847	-0.402191
C	 0.0693477231	-0.0088007023	-0.0607825753	 0.432206
C	-0.013700028	-0.7408133735	-1.2587110808	-0.048745
N	-0.045302235	-2.0568063895	-1.2151090143	-0.219076
C	 0.0067207709	-2.5965424556	 0.0150976597	 0.098035
N	 0.0851577244	-1.9389037815	 1.1639725375	-0.182107
N	 0.1171383283	-0.6066035699	 1.119477917	-0.270828
H	 0.1591000919	 1.6308351061	 0.8245408042	 0.310534
H	-0.0524061409	-0.2403587037	-2.222588976	 0.142966
H	-0.0174768385	-3.6786737575	 0.0871228327	 0.139205
198.6046	401.7737	412.0625	503.2029	590.1884	603.3974	643.2577	793.5926	871.8714	931.6918	986.0242	1051.0252	1121.4902	1170.5385	1185.9097	1276.6386	1353.6693	1431.2113	1479.2855	1576.5953	1622.4852	3170.5592	3199.6015	3735.9256
OC1=CN=CN=N1	Oc1cncnn1	
InChI=1S/C3H3N3O/c7-3-1-4-2-5-6-3/h1-2H,(H,6,7)	InChI=1S/C3H3N3O/c7-3-1-4-2-5-6-3/h1-2H,(H,6,7)
