13
gdb 1833	5.76933	2.1087	1.60265	1.5763	53.67	-0.2427	-0.0443	0.1984	721.4989	0.100767	-344.506029	-344.499521	-344.498577	-344.538796	23.054	
O	-0.0531128012	 0.0471914347	-0.388716703	-0.297659
C	-0.0318263762	 1.2160747191	-0.1081643686	 0.390946
C	-1.2521189099	 2.0487712164	 0.3111821262	-0.325163
C	-0.8363803119	 3.5182909428	 0.1544666758	-0.325318
C	 0.6987561835	 3.5270898697	 0.1815187849	 0.390359
O	 1.3841100504	 4.4912583585	 0.3963933113	-0.297392
C	 1.2045440427	 2.1144670208	-0.1072226411	-0.434595
H	-2.1305413558	 1.7512228634	-0.2649924862	 0.14001
H	-1.4624196132	 1.8052687371	 1.3606267674	 0.143882
H	-1.1437395767	 3.9150873621	-0.8218126221	 0.143105
H	-1.2334436471	 4.1965782735	 0.9122137745	 0.139771
H	 1.9334107837	 1.7909480153	 0.643394849	 0.165803
H	 1.7181656416	 2.0718210366	-1.0742758181	 0.166251
8.0107	94.1802	389.7072	406.3965	471.6757	527.1098	572.1515	581.8846	686.5706	789.2787	804.7176	883.896	891.8541	1000.8729	1109.0242	1151.001	1155.2358	1171.4036	1227.1602	1254.1693	1279.2843	1303.6167	1395.0043	1449.0803	1462.4155	1834.9224	1869.3015	3037.1309	3041.2358	3056.7305	3096.1614	3111.9058	3118.5652
O=C1CCC(=O)C1	O=C1CCC(=O)C1	
InChI=1S/C5H6O2/c6-4-1-2-5(7)3-4/h1-3H2	InChI=1S/C5H6O2/c6-4-1-2-5(7)3-4/h1-3H2
