15
gdb 803	8.25733	1.54097	1.35814	0.896	62.27	-0.2202	0.0053	0.2255	874.4591	0.123935	-341.759398	-341.752112	-341.751167	-341.790591	26.31	
C	-0.0513756744	 1.4975015232	 0.1681586704	-0.320472
N	-0.0158364358	 0.0548328845	 0.0765588013	-0.074568
C	-1.2453783898	-0.6904083595	 0.4577458987	-0.252993
C	-0.361717594	-1.6219134202	 1.2539866734	 0.410841
C	 0.8074869783	-0.6802612417	 1.0716537089	-0.258595
N	-0.5858995157	-2.744210325	 1.786941078	-0.22979
O	 0.5713005903	-3.2399715051	 2.4163021097	-0.393976
H	 0.9381578894	 1.9068072699	-0.0599150916	 0.124895
H	-0.7559567039	 1.8982319587	-0.5679410628	 0.124345
H	-0.3530583139	 1.8665890845	 1.1677391183	 0.091467
H	-1.936619862	-0.1141901637	 1.0951896855	 0.10611
H	-1.8072707829	-1.1122231921	-0.3822880212	 0.125597
H	 1.7391128885	-1.1043539329	 0.682766088	 0.129647
H	 1.0336431285	-0.1083802473	 1.9870412575	 0.109356
H	 0.2697521475	-4.0896435734	 2.7551737759	 0.308137
85.1977	182.8637	225.3354	264.4183	329.0953	346.8961	380.7389	472.5922	522.9738	675.1763	786.3485	906.9028	951.2659	974.7993	986.6159	1056.8054	1103.2156	1128.1135	1172.1426	1176.23	1215.2674	1226.1176	1293.4622	1325.5815	1411.1301	1453.0486	1478.7935	1485.1595	1497.1956	1508.7118	1813.6254	2918.8957	2964.5983	2973.5739	3059.5183	3062.3773	3065.43	3102.0451	3818.7209
CN1CC(C1)=NO	CN1CC(=NO)C1	
InChI=1S/C4H8N2O/c1-6-2-4(3-6)5-7/h7H,2-3H2,1H3	InChI=1S/C4H8N2O/c1-6-2-4(3-6)5-7/h7H,2-3H2,1H3
