18
gdb 2693	13.80667	0.81243	0.78586	4.2049	69.24	-0.3144	0.038	0.3523	1423.1874	0.159492	-289.872162	-289.863554	-289.86261	-289.905678	29.577	
C	-0.0367132521	 1.5775719855	-0.0194329888	-0.381088
C	-8.7796*^-6	 0.047293172	 0.0000633051	-0.170491
C	 0.7305500166	-0.5205008537	 1.2218729572	-0.164707
C	 0.767016787	-2.0510346806	 1.2406863567	-0.178727
C	 1.5062283099	-2.5993868146	 2.4777687527	-0.341687
C	 1.5497159824	-4.0595766829	 2.5098620603	 0.256235
N	 1.5739747469	-5.2149451119	 2.5185006429	-0.305588
H	 0.9747360188	 1.9984790411	-0.0332095344	 0.11579
H	-0.5642415719	 1.9512334704	-0.9022404574	 0.116314
H	-0.5470888354	 1.9734249697	 0.8655555335	 0.115786
H	-1.0249947503	-0.3453579043	-0.0222209644	 0.100309
H	 0.485041988	-0.3204804438	-0.9135781439	 0.100309
H	 1.7576604754	-0.1301066486	 1.245889276	 0.09761
H	 0.2459239238	-0.1551506598	 2.1381671785	 0.097609
H	-0.2529661712	-2.4518465349	 1.2284028801	 0.120253
H	 1.2588585531	-2.4267677246	 0.3362113895	 0.120254
H	 2.5353728528	-2.2216387611	 2.5031800269	 0.150907
H	 1.0219133358	-2.2469454979	 3.3963277896	 0.150913
61.0912	101.1806	106.9884	141.8987	212.7502	248.4256	350.3231	397.2371	401.1022	562.4827	732.7254	756.5483	845.4562	890.7809	953.0694	972.4786	1006.9307	1041.2931	1069.0499	1129.7537	1141.5455	1231.6277	1262.9355	1295.6969	1329.6743	1333.4105	1335.971	1383.0116	1402.8738	1415.2215	1468.449	1484.5854	1489.1561	1500.3473	1502.2433	1513.2821	2362.1261	3003.6047	3018.4202	3029.3938	3031.2113	3034.0083	3044.2068	3053.278	3067.3624	3090.4421	3097.9241	3105.3008
CCCCCC#N	CCCCCC#N	
InChI=1S/C6H11N/c1-2-3-4-5-6-7/h2-5H2,1H3	InChI=1S/C6H11N/c1-2-3-4-5-6-7/h2-5H2,1H3
