16
gdb 4502	3.47361	1.82728	1.21756	1.4447	69.26	-0.1888	0.0189	0.2077	985.392	0.130256	-379.972291	-379.963749	-379.962805	-380.005471	30.018	
C	 0.0347986608	 1.4208115769	 0.0784863163	-0.489072
C	 0.0026593272	-0.0594387323	-0.0502303312	 0.380714
N	-0.1339851763	-0.7654782812	-1.1310126928	-0.343097
C	-0.1002329434	-2.0840782583	-0.6966444841	 0.163956
N	-0.2794693756	-3.1244966518	-1.6113913022	-0.601841
C	 0.0553011876	-2.1166823808	 0.6541952007	 0.274216
C	 0.1450969767	-3.1829632157	 1.6804696671	-0.50264
O	 0.1290982054	-0.7961778937	 1.0726178574	-0.213998
H	 0.9750740244	 1.7587138761	 0.5268105649	 0.141877
H	-0.067468816	 1.8655080741	-0.9116597011	 0.152916
H	-0.7801080368	 1.7798013256	 0.716153559	 0.143255
H	-0.1182872219	-2.7963852448	-2.5548918704	 0.251425
H	 0.2961588027	-3.9342232999	-1.4229904604	 0.243182
H	 1.1286384863	-3.2207082604	 2.1659947236	 0.131166
H	-0.6040783431	-3.04980425	 2.4700284239	 0.137625
H	-0.037688718	-4.1557408037	 1.2154336694	 0.130316
85.2465	92.9119	166.9669	182.8249	242.4872	251.71	277.9912	354.5741	487.664	619.8192	643.8229	653.9537	702.1906	774.592	813.4846	945.404	1021.5653	1035.177	1060.8726	1067.2583	1089.9868	1185.9323	1276.8467	1336.8315	1400.2088	1411.1905	1435.4856	1471.2981	1475.4496	1481.8847	1495.7401	1616.1503	1642.5765	1711.1842	3016.0617	3041.2045	3063.1136	3093.7152	3111.7096	3155.5564	3544.6232	3638.3659
CC1=NC(N)=C(C)O1	Cc1nc(N)c(C)o1	
InChI=1S/C5H8N2O/c1-3-5(6)7-4(2)8-3/h6H2,1-2H3	InChI=1S/C5H8N2O/c1-3-5(6)7-4(2)8-3/h6H2,1-2H3
