11
gdb 4331	4.23359	2.04838	1.38046	4.7643	56.5	-0.2563	-0.0654	0.1909	796.2975	0.07408	-430.760003	-430.753921	-430.752977	-430.790489	22.515	
O	 0.0036858147	 1.2887766975	 0.0078809001	-0.368471
C	-0.0295692293	-0.0390771383	 0.0005799593	 0.45254
N	-1.1773463247	-0.621951368	 0.0039317291	-0.301186
C	-1.2095328247	-1.985833186	-0.0029144676	 0.438034
N	-2.2467374358	-2.6970381879	-0.0011501683	-0.51442
O	 0.0832120378	-2.660298849	-0.0136237177	-0.211261
C	 1.1763953823	-1.9204770241	-0.0157219947	 0.161703
N	 1.2279122093	-0.6380801889	-0.0092561499	-0.369524
H	 0.9355157702	 1.548808872	 0.0043108826	 0.317412
H	-2.0134487679	-3.6878750501	-0.0076790716	 0.234145
H	 2.086145118	-2.5170152873	-0.0238296914	 0.161028
104.351	189.5728	386.4855	415.7669	530.5374	548.1901	575.7874	599.8715	684.1649	720.7336	800.8498	839.4351	850.9654	958.0002	1007.1275	1083.3781	1188.2278	1259.1243	1321.4779	1391.5121	1438.6079	1614.1176	1733.3876	1794.7112	3173.9486	3527.3258	3779.6673
OC1=NC(=N)OC=N1	O[C@@H]1N=C([NH])OC=N1	
InChI=1S/C3H3N3O2/c4-2-6-3(7)5-1-8-2/h1H,(H2,4,6,7)	InChI=1S/C3H4N3O2/c4-2-6-3(7)5-1-8-2/h1,3-4,7H/t3-/m0/s1
