12
gdb 409	6.21253	3.0959	2.43202	2.2978	47.26	-0.2592	-0.0374	0.2218	538.1677	0.094183	-306.358581	-306.352296	-306.351351	-306.388334	21.75	
C	 0.0060105267	 1.5599332217	-0.0037879501	-0.467572
C	-0.0171302122	 0.0549396171	-0.0308868191	 0.309651
C	 0.728868159	-0.7238324551	-1.0462233324	-0.215047
O	 1.2058518732	-0.6380076687	 0.2850159	-0.25633
C	-1.2156168285	-0.6283071525	 0.5566627354	 0.125661
O	-2.2341272766	-0.0638468504	 0.8620550604	-0.249367
H	 0.9177205514	 1.9387768575	-0.470476662	 0.127952
H	-0.8635932049	 1.9584389268	-0.5331044474	 0.143805
H	-0.0393573438	 1.9233927314	 1.0267411313	 0.142662
H	 0.3752264771	-1.7060973397	-1.3587531768	 0.123876
H	 1.2949966359	-0.1705200782	-1.7941876212	 0.128971
H	-1.0727391572	-1.7231849099	 0.6955347716	 0.085739
117.7778	172.6104	242.9636	351.916	374.4895	394.8396	543.1513	760.7904	818.9986	884.0955	940.2383	1013.5764	1044.4497	1110.8879	1138.7029	1163.3895	1303.8427	1348.4568	1405.4932	1431.1677	1477.4953	1492.112	1522.9355	1829.4329	2892.7591	3053.0301	3080.6917	3122.9469	3138.3093	3170.1315
CC1(CO1)C=O	C[C@]1(CO1)C=O	
InChI=1S/C4H6O2/c1-4(2-5)3-6-4/h2H,3H2,1H3	InChI=1S/C4H6O2/c1-4(2-5)3-6-4/h2H,3H2,1H3/t4-/m1/s1
