11
gdb 4639	5.54354	1.4737	1.16421	3.1432	57.03	-0.2456	-0.0755	0.1702	911.6733	0.072755	-434.601862	-434.595419	-434.594474	-434.632788	23.119	
O	-0.0146336489	-0.0607075301	-0.0000811862	-0.29162
C	-0.0347930941	 1.1524333231	 0.0101793296	 0.081185
C	 1.1699464006	 1.9590191379	 0.0026035095	 0.204674
C	 1.3445969856	 3.2988705325	 0.0112942051	-0.065996
O	 2.6638350791	 3.6027011269	-0.0016717992	-0.199617
C	 3.4017807667	 2.3970548876	-0.0197948671	 0.507132
O	 4.5944026127	 2.3536693788	-0.0341775884	-0.37438
N	 2.4513692844	 1.4104587367	-0.0167398124	-0.428346
H	-0.9800168729	 1.7310460069	 0.0256033516	 0.092585
H	 0.6433285617	 4.1167420454	 0.0259847602	 0.178312
H	 2.653886185	 0.4250038742	-0.0270072727	 0.296071
128.5341	158.8846	202.6402	375.609	472.6955	492.6818	525.5384	614.3273	715.5627	753.4632	776.8813	794.0761	863.251	1013.7594	1022.1878	1100.6518	1195.7086	1262.5418	1331.4266	1416.2096	1454.394	1663.5312	1771.5591	1929.3667	2933.6065	3283.8661	3682.8047
O=CC1=COC(=O)N1	O=Cc1coc(=O)[nH]1	
InChI=1S/C4H3NO3/c6-1-3-2-8-4(7)5-3/h1-2H,(H,5,7)	InChI=1S/C4H3NO3/c6-1-3-2-8-4(7)5-3/h1-2H,(H,5,7)
