14
gdb 225	4.6175	2.83829	2.80928	2.8176	49.7	-0.2523	-0.0258	0.2265	570.0556	0.115843	-307.582044	-307.57441	-307.573465	-307.613529	26.432	
C	-0.208339281	 1.5620154634	 0.0164116384	-0.417693
C	-0.0498478262	 0.0313967451	 0.0154456713	 0.268108
C	 0.8696933976	-0.4432071857	 1.1459160896	-0.416687
O	-1.3203811245	-0.6133115483	 0.0604507652	-0.465025
C	 0.5320183235	-0.3788790199	-1.3392662658	 0.15807
O	 1.6799898896	-0.2105876855	-1.6560592994	-0.259224
H	 0.7608066329	 2.04988887	-0.1174169287	 0.139776
H	-0.8784697226	 1.8808147088	-0.7872092135	 0.128556
H	-0.6338933401	 1.8937722874	 0.9705305027	 0.110788
H	 0.5122768108	-0.0721180109	 2.1128022906	 0.105847
H	 0.8934456256	-1.5357195593	 1.1806634314	 0.128435
H	 1.8861496266	-0.0763553552	 0.9841249665	 0.14199
H	-1.7575958732	-0.3555626427	 0.8782413182	 0.282418
H	-0.2168605792	-0.835317057	-2.0230236165	 0.094642
40.0162	213.4403	232.7615	244.1577	270.7919	282.6456	349.0412	424.9736	434.9827	593.9348	760.4505	906.1613	924.7598	958.303	992.1112	1038.8548	1135.3323	1203.2068	1224.7622	1360.8986	1386.9113	1390.3944	1414.2593	1478.613	1481.0535	1496.0111	1510.704	1838.6698	2901.3136	3029.9961	3037.1257	3102.0902	3109.6137	3126.0337	3133.819	3821.0251
CC(C)(O)C=O	CC(C)(O)C=O	
InChI=1S/C4H8O2/c1-4(2,6)3-5/h3,6H,1-2H3	InChI=1S/C4H8O2/c1-4(2,6)3-5/h3,6H,1-2H3
