15
gdb 2134	3.5667	3.15693	1.8167	2.4921	62.01	-0.239	-0.0164	0.2226	702.6276	0.124973	-308.554162	-308.54746	-308.546516	-308.584952	24.742	
C	-0.1247281806	 1.5864483009	 0.0236696623	-0.391433
C	 0.0254402321	 0.058405817	-0.0315144882	-0.135135
C	 0.8144706388	-0.4870583451	-1.1947348725	-0.068899
C	 1.8302670445	-1.2663322452	-0.8185913	-0.078068
C	 1.9267452375	-1.4073969427	 0.6762885196	-0.366793
C	 0.8020874253	-0.4903004408	 1.1839753862	 0.392918
O	 0.5737636418	-0.2206473195	 2.3339746337	-0.311008
H	 0.850975044	 2.0783707275	-0.0401159728	 0.120753
H	-0.7424289159	 1.9495079471	-0.8030435083	 0.115582
H	-0.5945174921	 1.8787864781	 0.966476166	 0.13991
H	-0.9830101812	-0.3824118902	-0.0003067807	 0.108871
H	 0.5612817684	-0.2528204533	-2.2230448962	 0.098906
H	 2.5186848117	-1.7585803825	-1.4958954463	 0.101142
H	 1.75816311	-2.433327267	 1.0309635151	 0.136778
H	 2.8908015257	-1.0966977043	 1.097988542	 0.136475
64.9036	211.094	234.8536	250.8676	446.6903	474.6306	571.8279	631.7068	714.4833	737.9968	761.4138	896.7471	922.5375	969.9649	985.6326	1017.9219	1074.8321	1097.5493	1132.9473	1146.6697	1168.0921	1276.5571	1284.4493	1305.1818	1377.6136	1403.193	1442.3622	1494.1396	1499.439	1678.731	1849.2803	2990.1302	3024.096	3039.4795	3055.1028	3109.8119	3123.9799	3182.6966	3207.2247
CC1C=CCC1=O	C[C@H]1C=CCC1=O	
InChI=1S/C6H8O/c1-5-3-2-4-6(5)7/h2-3,5H,4H2,1H3	InChI=1S/C6H8O/c1-5-3-2-4-6(5)7/h2-3,5H,4H2,1H3/t5-/m0/s1
