13
gdb 4892	5.12986	1.52948	1.22051	3.1988	57.66	-0.2134	0.03	0.2435	936.1362	0.094977	-435.736379	-435.729156	-435.728212	-435.768413	25.642	
C	-0.0388028272	 1.3901358525	-0.0814738184	-0.260395
O	 0.4947867714	 0.0700340223	 0.1267765937	-0.265074
C	 0.7998857054	-0.6069143755	-0.9701239538	 0.394525
C	 0.5548508103	-1.8577563076	-1.349615304	-0.189919
O	 1.2159797844	-2.0832207928	-2.5571918196	-0.221398
C	 1.8324888493	-0.9111431435	-2.9029221121	 0.513488
N	 2.5142504712	-0.653006438	-3.9250774211	-0.576025
O	 1.5948585174	 0.0133013597	-1.9215226448	-0.234793
H	 0.680422761	 2.0193705336	-0.6111477445	 0.15789
H	-0.9751909557	 1.3373860789	-0.6474377047	 0.134475
H	-0.2270875997	 1.7925311862	 0.9135074832	 0.147861
H	 0.0017697947	-2.6687585201	-0.9156297794	 0.162217
H	 2.5713109173	-1.4683396958	-4.5297197345	 0.237148
69.7296	137.1092	161.5639	220.782	367.7518	414.096	544.0675	610.3972	656.644	702.6108	733.3243	760.0883	777.8613	922.4495	971.3292	1010.4687	1039.3643	1101.5351	1173.886	1195.8296	1205.8544	1315.7647	1346.0356	1479.8999	1487.6509	1502.2373	1765.3031	1828.3126	3037.2058	3119.9143	3161.9753	3321.7493	3547.1227
COC1=COC(=N)O1	COC1=CO[C@@H]([NH])O1	
InChI=1S/C4H5NO3/c1-6-3-2-7-4(5)8-3/h2,5H,1H3	InChI=1S/C4H6NO3/c1-6-3-2-7-4(5)8-3/h2,4-5H,1H3/t4-/m1/s1
