15
gdb 3108	5.83421	2.11363	1.83443	0.8024	68.7	-0.2301	0.0401	0.2702	723.9829	0.125016	-271.323089	-271.316622	-271.315678	-271.353031	25.23	
C	 0.0403089664	-1.21485059	-0.0341318697	-0.419172
C	 0.0333544303	-0.0107521502	-0.0103170084	 0.172312
C	 0.0082994934	 1.4098949156	 0.0446952892	 0.22448
C	 0.277306392	 2.2837337811	-1.1626890247	-0.313035
C	 1.17637449	 2.4293890864	 0.024311737	-0.09492
C	 0.4920061461	 3.2599759442	 1.113427492	-0.221631
C	-0.6976672966	 2.2465425801	 1.1313299148	-0.289075
H	 0.0479152278	-2.2758792999	-0.0613632941	 0.183009
H	 0.7012252939	 1.7619299738	-2.0134805184	 0.125361
H	-0.4298032851	 3.0702385156	-1.4195857441	 0.108251
H	 2.236060148	 2.2140438585	-0.0362425101	 0.099439
H	 1.0401638724	 3.2648683722	 2.0574615726	 0.108678
H	 0.2565469696	 4.2939709492	 0.8412775756	 0.099862
H	-1.6858588789	 2.6296647622	 0.8586314287	 0.099318
H	-0.7754549991	 1.7136799612	 2.0801725198	 0.117123
152.2019	165.6662	277.6932	402.1146	487.869	524.3734	557.6421	581.8227	643.1156	716.3986	785.2986	823.0431	865.3229	932.1073	945.2755	967.2193	1025.0087	1031.8442	1087.9315	1097.949	1144.6649	1204.408	1223.3096	1242.9816	1276.773	1293.005	1377.5205	1480.3283	1482.0503	1506.2994	2229.1845	3047.7066	3056.6445	3103.6327	3105.3934	3126.4941	3189.1254	3211.2078	3504.8849
C#CC12CC1CC2	C#C[C@]12C[C@H]1CC2	
InChI=1S/C7H8/c1-2-7-4-3-6(7)5-7/h1,6H,3-5H2	InChI=1S/C7H8/c1-2-7-4-3-6(7)5-7/h1,6H,3-5H2/t6-,7+/m1/s1
