17
gdb 2179	3.53708	2.95039	1.88725	1.314	59.91	-0.2495	0.0859	0.3354	724.3483	0.148462	-346.862839	-346.855561	-346.854617	-346.894191	26.546	
C	-0.0712167888	 1.5659875583	-0.1421708483	-0.417325
C	 0.1087282904	 0.0665907241	-0.0067339181	 0.105035
O	 0.9646099109	-0.4138189523	-1.0426762147	-0.248602
C	 1.3294880259	-1.6984792335	-0.6195528083	 0.023122
O	 1.461946449	-1.6589432956	 0.7895577932	-0.276603
C	 0.8085499949	-0.4735149387	 1.2659655496	 0.125142
C	 1.8430369872	 0.4479113639	 1.9020088174	-0.397433
H	 0.8887188322	 2.0853350287	-0.097885673	 0.131497
H	-0.5440582875	 1.7999985251	-1.0996399423	 0.13033
H	-0.7141319151	 1.9470725333	 0.6572345532	 0.12054
H	-0.8723741225	-0.4307814435	-0.0948008607	 0.070008
H	 0.5573015747	-2.4389648574	-0.8988915839	 0.080857
H	 2.2864674744	-1.9666999206	-1.0798264213	 0.112507
H	 0.0614288993	-0.7680144702	 2.0139198613	 0.077651
H	 2.5647093486	 0.7948105985	 1.1568682837	 0.126752
H	 1.3694540744	 1.3178068603	 2.3685505989	 0.110624
H	 2.389212842	-0.0993344505	 2.6750069132	 0.1259
63.2827	197.2848	229.9992	264.2893	267.1165	349.6973	395.1256	513.6966	691.8656	744.1314	774.5955	873.5123	896.3851	991.0985	1016.9279	1058.4957	1077.4344	1115.164	1133.0775	1151.5471	1165.6167	1191.3262	1236.3704	1318.6065	1349.4264	1385.9563	1386.211	1409.9741	1421.1929	1433.1905	1478.668	1490.472	1497.3764	1506.6373	1546.5721	2929.3766	2952.5793	3023.0659	3039.5067	3049.3269	3064.7613	3112.629	3118.6159	3121.6945	3133.4419
CC1OCOC1C	C[C@H]1OCO[C@H]1C	
InChI=1S/C5H10O2/c1-4-5(2)7-3-6-4/h4-5H,3H2,1-2H3	InChI=1S/C5H10O2/c1-4-5(2)7-3-6-4/h4-5H,3H2,1-2H3/t4-,5+
