11
gdb 1384	5.42466	1.43284	1.14152	3.8542	65.61	-0.266	-0.0777	0.1883	974.7892	0.075189	-306.067385	-306.059513	-306.058569	-306.101713	25.629	
C	 0.0266243707	 1.4552793497	 0.0094182274	-0.501578
C	 0.0168183073	 0.0038978801	 0.0023702623	 0.000157
C	 0.0006371322	-1.2030236166	-0.0034682441	 0.090289
C	-0.0335619063	-2.6449029296	-0.0102603113	 0.156872
O	-1.0656258309	-3.2878658435	-0.0019735063	-0.267878
C	 1.2711040999	-3.2809280478	-0.027941779	 0.286498
C	 2.3481569203	-3.8178612614	-0.0425988071	-0.478985
H	 1.047944881	 1.849217658	 0.0065849361	 0.161888
H	-0.4940895613	 1.8491104968	-0.8701765028	 0.167096
H	-0.4861124688	 1.8406900145	 0.8973733097	 0.167073
H	 3.2958301859	-4.2990929801	-0.0555387847	 0.218568
9.546	84.3056	138.503	204.4714	261.5589	336.0361	400.7171	503.7735	575.3926	647.7444	694.1882	703.0296	773.4638	989.6016	1043.1524	1053.565	1233.6827	1408.9006	1468.2677	1471.522	1719.7198	2215.5441	2341.513	3032.7362	3096.7701	3101.8228	3494.7031
CC#CC(=O)C#C	CC#CC(=O)C#C	
InChI=1S/C6H4O/c1-3-5-6(7)4-2/h2H,1H3	InChI=1S/C6H4O/c1-3-5-6(7)4-2/h2H,1H3
