15
gdb 1063	6.83457	1.8199	1.57283	0.8155	62.32	-0.2185	0.0238	0.2423	799.0433	0.126187	-308.55123	-308.54462	-308.543676	-308.582129	24.173	
C	 0.1058640712	 1.5503144329	 0.1489248302	-0.365123
C	-0.1021814437	 0.0434885987	-0.076970655	-0.301785
C	 0.6524824697	-0.4896044197	-1.2594761709	 0.255767
C	 0.1338629954	-0.9789989025	-2.4180086613	-0.103515
O	 1.1187669687	-1.3614411155	-3.2769304759	-0.142522
C	 2.2977096778	-1.1100448549	-2.6511006604	 0.006333
C	 2.0810835716	-0.5789077131	-1.4214703361	-0.278658
H	 1.1631444531	 1.783431782	 0.3105193549	 0.118685
H	-0.2303226168	 2.1246156711	-0.7197872252	 0.120999
H	-0.452241727	 1.8953978318	 1.0250110244	 0.111244
H	 0.2012756218	-0.499007684	 0.8277127291	 0.107695
H	-1.1704389843	-0.1613446595	-0.2106100257	 0.102477
H	-0.8750941445	-1.1199029809	-2.7704704807	 0.129806
H	 3.1852921868	-1.3644742496	-3.2067360817	 0.132553
H	 2.8362435804	-0.2870032167	-0.7075231555	 0.106043
62.2884	161.1594	207.609	330.7203	397.1572	616.84	622.3034	677.5217	734.4371	781.0705	792.3878	832.6698	892.5481	947.335	999.7924	1058.1736	1069.2268	1091.286	1100.3798	1203.5255	1256.7666	1275.1313	1298.4993	1361.1516	1407.668	1413.3962	1485.101	1496.2653	1506.4388	1537.8476	1636.2669	3022.2001	3036.0135	3061.0618	3106.5694	3111.2086	3247.1292	3270.0373	3282.6033
CCC1=COC=C1	CCc1cocc1	
InChI=1S/C6H8O/c1-2-6-3-4-7-5-6/h3-5H,2H2,1H3	InChI=1S/C6H8O/c1-2-6-3-4-7-5-6/h3-5H,2H2,1H3
