16
gdb 2398	5.37196	2.07692	1.85359	1.8567	61.19	-0.2353	0.0687	0.304	737.8818	0.136413	-325.715372	-325.708476	-325.707532	-325.746141	25.259	
C	-0.0849000033	 1.4621335673	-0.0973799133	-0.318018
N	 0.057611269	 0.0161433195	 0.0026342048	-0.115254
C	 1.4107633612	-0.528174139	-0.1405467461	-0.314125
C	 0.7213127266	-0.5167870544	 1.169723418	 0.297779
C	 1.1202776219	 0.1826300147	 2.4721937866	-0.143302
O	 0.6286437941	-0.9377468956	 3.2365295597	-0.27645
C	 0.1912767682	-1.6420449915	 2.0505251454	-0.137461
H	 0.7751119283	 2.0226979894	 0.3055029735	 0.101523
H	-0.2061651272	 1.735751929	-1.1497198923	 0.128088
H	-0.9834599635	 1.7780251885	 0.4419918665	 0.127837
H	 1.4965805511	-1.4448824756	-0.7189237317	 0.118699
H	 2.2338664568	 0.1747383759	-0.2735167744	 0.107986
H	 2.1933190826	 0.3497487661	 2.6289124814	 0.105441
H	 0.5767859199	 1.1094102072	 2.7010001239	 0.103478
H	-0.8974709661	-1.7742697465	 2.0192848323	 0.109503
H	 0.6825948404	-2.617577045	 1.9475102757	 0.104275
101.741	191.5002	212.7037	229.2454	360.1589	425.4633	448.6453	569.1659	753.4506	865.3931	881.4073	908.3771	972.6153	989.1322	1028.3359	1052.9942	1110.6625	1117.382	1143.403	1146.1652	1152.2466	1177.5367	1209.9233	1227.1637	1304.1747	1344.1093	1442.4177	1452.4574	1492.4164	1496.6395	1506.1232	1519.1896	1530.8271	2965.1619	3001.5467	3016.0904	3045.5324	3059.7678	3070.405	3079.8503	3107.4518	3169.5809
CN1CC11COC1	CN1CC21COC2	
InChI=1S/C5H9NO/c1-6-2-5(6)3-7-4-5/h2-4H2,1H3	InChI=1S/C5H9NO/c1-6-2-5(6)3-7-4-5/h2-4H2,1H3
