12
gdb 3953	7.53429	1.87689	1.54279	2.3071	51.11	-0.2596	-0.0155	0.2442	735.7169	0.091082	-360.495137	-360.489	-360.488056	-360.525683	21.588	
O	 0.2927030089	 1.0936071915	 0.686664691	-0.406862
C	 0.02222351	 0.0610070432	-0.2463569809	-0.180581
C	-1.3749337838	-0.47419219	-0.1263746501	 0.104207
C	-2.2030630454	-0.4217585588	 0.9517858019	 0.004403
O	-3.3784733433	-1.0078707689	 0.6791395124	-0.161204
N	-3.3542145101	-1.48207354	-0.6265755264	-0.130637
C	-2.1718564971	-1.1593873241	-1.0889458806	-0.050026
H	-0.3033253851	 1.8248912936	 0.4919365891	 0.286417
H	 0.2087275748	 0.3856577357	-1.2818547604	 0.10476
H	 0.7554812085	-0.7243814175	-0.0292713297	 0.135176
H	-2.0932961034	-0.0091071553	 1.9418494778	 0.161234
H	-1.9181748239	-1.4256759493	-2.106018684	 0.133113
63.3117	183.0761	260.684	355.3525	441.6867	612.8785	654.1893	714.5425	852.5004	903.5267	906.8281	939.4908	987.7544	1026.7763	1073.6075	1146.7752	1193.0563	1217.0405	1281.4749	1337.5826	1403.9578	1435.0966	1474.2534	1503.9378	1648.4064	2985.0315	3055.7315	3238.0785	3276.4428	3807.4704
OCC1=CON=C1	OCc1conc1	
InChI=1S/C4H5NO2/c6-2-4-1-5-7-3-4/h1,3,6H,2H2	InChI=1S/C4H5NO2/c6-2-4-1-5-7-3-4/h1,3,6H,2H2
