13
gdb 3800	7.71533	2.03301	1.62567	1.129	55.57	-0.2091	0.0238	0.2329	724.2358	0.103805	-340.635773	-340.629513	-340.628569	-340.666045	22.56	
C	 0.0112807095	 1.4126633217	 0.0090854262	-0.247677
O	 0.0344016754	-0.0027307431	 0.0038170327	-0.265481
C	-1.1811048344	-0.6035054323	 0.0117879127	 0.28371
C	-1.3729709236	-1.9727611392	 0.008755497	-0.149602
N	-2.7204987277	-2.1493604588	 0.0192286413	-0.171054
N	-3.4144193021	-1.0050149923	 0.0287381555	-0.226728
C	-2.4827652469	-0.0486022254	 0.0243225403	-0.120052
H	 1.0520813057	 1.7404611537	 0.0017033684	 0.133631
H	-0.4997017389	 1.8090434409	-0.8785811513	 0.122398
H	-0.485029327	 1.8026281077	 0.9078473294	 0.122399
H	-0.6730713053	-2.7911397098	 0.000263904	 0.134311
H	-3.2201690784	-3.0216822367	 0.0204139607	 0.275584
H	-2.7796234963	 0.9882406036	 0.0302503232	 0.108562
82.4287	217.6295	238.5218	344.9814	482.4345	493.5386	650.4655	657.1453	695.3526	752.6762	847.592	941.4351	1001.0745	1055.2966	1104.9094	1164.2573	1180.8938	1213.0242	1271.5576	1341.1758	1383.5764	1414.7046	1476.942	1488.4815	1506.8426	1515.9124	1633.1773	2999.7577	3056.3698	3134.0347	3260.3798	3277.8713	3680.6849
COC1=CNN=C1	COc1c[nH]nc1	
InChI=1S/C4H6N2O/c1-7-4-2-5-6-3-4/h2-3H,1H3,(H,5,6)	InChI=1S/C4H6N2O/c1-7-4-2-5-6-3-4/h2-3H,1H3,(H,5,6)
