10
gdb 735	9.67338	3.72795	2.73673	1.8949	43.55	-0.2874	-0.0235	0.2639	457.4821	0.074104	-301.359287	-301.354167	-301.353223	-301.388116	17.122	
C	 0.0082008412	 1.4802689243	-0.01892382	-0.491744
C	-0.058140177	-0.0035878696	 0.0096471908	 0.426447
N	-1.012805425	-0.7817336804	-0.4110164447	-0.305454
C	-0.5082959692	-2.0260449463	-0.1226331385	 0.041894
N	 0.6696379116	-2.0375109898	 0.435252421	-0.113421
O	 0.980777415	-0.6737965403	 0.5280678553	-0.191241
H	 0.8701662686	 1.8160924489	-0.6031026013	 0.160381
H	-0.9056372168	 1.8709168292	-0.4657208339	 0.165318
H	 0.1175047895	 1.8806721264	 0.99334416	 0.160353
H	-1.0351008978	-2.9449690424	-0.3352127287	 0.147468
73.2417	262.8016	346.2016	653.372	689.1166	701.0563	908.0743	932.1279	978.4977	996.6149	1040.231	1070.5315	1192.1091	1255.1628	1324.2302	1409.0698	1475.8736	1476.0507	1521.6271	1627.9281	3054.3961	3113.9728	3164.8004	3260.7088
CC1=NC=NO1	Cc1ncno1	
InChI=1S/C3H4N2O/c1-3-4-2-5-6-3/h2H,1H3	InChI=1S/C3H4N2O/c1-3-4-2-5-6-3/h2H,1H3
