14
gdb 4688	6.11546	1.33844	1.10103	2.6039	78.36	-0.1786	0.0095	0.1881	1018.6113	0.108032	-341.589678	-341.582078	-341.581134	-341.621171	28.828	
N	 0.1577160351	 1.3826648867	 0.1357696532	-0.615408
C	-0.0121905861	-0.0046542173	 0.0285226752	 0.302969
C	-1.1467580995	-0.7951701906	-0.0132542521	-0.198014
C	-0.7187282204	-2.1460215435	-0.0296232794	-0.239901
C	 0.6647293056	-2.1595914022	-0.0089751928	 0.167256
N	 1.0750094303	-0.8291808743	 0.0292039157	-0.34605
C	 1.587995075	-3.2184059065	-0.0262579918	 0.256803
C	 2.3951148079	-4.1155554282	-0.0356664048	-0.463033
H	 0.6880507853	 1.7778229868	-0.6343693958	 0.247125
H	-0.7361345259	 1.854348371	 0.183237294	 0.251656
H	-2.1631610428	-0.4338866625	-0.0454890894	 0.088209
H	-1.3430019349	-3.0244521526	-0.0745005503	 0.100746
H	 2.026959115	-0.5305260167	 0.1552832579	 0.263465
H	 3.0946070355	-4.9135476002	-0.0471767494	 0.184177
139.1172	146.7261	170.4757	280.8906	368.2134	439.6671	455.4606	483.7133	550.4277	557.3623	649.3012	668.6271	677.1081	699.162	754.2834	804.3983	837.5404	995.1382	1021.1576	1063.964	1128.3495	1217.424	1262.9149	1318.5594	1409.3518	1480.1137	1535.039	1620.9741	1656.5927	2217.6946	3245.4478	3264.1947	3504.6824	3506.0967	3613.525	3676.7732
NC1=CC=C(N1)C#C	Nc1ccc([nH]1)C#C	
InChI=1S/C6H6N2/c1-2-5-3-4-6(7)8-5/h1,3-4,8H,7H2	InChI=1S/C6H6N2/c1-2-5-3-4-6(7)8-5/h1,3-4,8H,7H2
