12
gdb 22	8.67553	8.00568	4.75542	1.4259	38.58	-0.2612	0.074	0.3351	318.3721	0.107673	-194.267232	-194.261748	-194.260804	-194.294663	19.052	
C	-0.0331587081	 1.5478256631	-0.0043881535	-0.390249
C	-0.0110853438	 0.0185909451	 0.016761166	 0.156168
C	 0.7093838393	-0.5359671127	 1.239784442	-0.364261
O	-1.3321984071	-0.5171255405	 0.0523605653	-0.432342
H	 0.9821569246	 1.9571589997	-0.0318222477	 0.113876
H	-0.5638809986	 1.9208762284	-0.8884586459	 0.102034
H	-0.5408254809	 1.9334094525	 0.8857548884	 0.122598
H	 0.5104212174	-0.3376724089	-0.8881917632	 0.061707
H	 0.2224049199	-0.1878586016	 2.1565024531	 0.120275
H	 0.6824202398	-1.628876384	 1.2330514094	 0.122474
H	 1.7543430111	-0.2124695005	 1.2552418802	 0.109644
H	-1.8181868136	-0.1557743505	-0.695539624	 0.278075
216.2269	260.7829	301.2711	356.8488	411.0276	478.2963	822.5966	924.8043	946.7303	968.9134	1085.7082	1164.7329	1187.5788	1283.2854	1377.5882	1391.3356	1410.6825	1429.8433	1481.6527	1487.4703	1497.3205	1509.8072	2950.3306	3024.5227	3041.138	3090.5241	3107.4242	3115.4267	3121.7413	3817.3516
CC(C)O	CC(C)O	
InChI=1S/C3H8O/c1-3(2)4/h3-4H,1-2H3	InChI=1S/C3H8O/c1-3(2)4/h3-4H,1-2H3
