12
gdb 477	4.20573	4.20358	3.19021	0.6618	41.57	-0.2552	0.0505	0.3058	476.1977	0.096192	-343.468335	-343.462548	-343.461604	-343.497233	21.828	
O	-0.1373220196	 1.346586477	-0.068061187	-0.433775
C	-0.0190420275	-0.0458231908	-0.0608897811	 0.031453
C	-0.392616253	-0.7361168165	 1.2368181344	 0.031285
O	-0.768511744	 0.1251018039	 2.2712974128	-0.433833
C	-1.3330199158	-0.7951644794	 0.0483634952	 0.031365
O	-2.4788190123	-0.0043663075	 0.1674317411	-0.433629
H	-0.1269319719	 1.6118851116	 0.8655900466	 0.296977
H	 0.782665854	-0.4296376922	-0.6843252816	 0.105393
H	 0.1455837266	-1.6203146857	 1.5642835022	 0.105415
H	-1.7223971814	 0.2650896334	 2.1584063835	 0.297054
H	-1.48692491	-1.7280656294	-0.485294198	 0.105329
H	-2.2259853352	 0.8694049355	-0.171230348	 0.296965
223.5427	226.6	301.8495	433.7835	446.2771	566.2837	680.7304	681.5233	693.637	772.63	774.4122	964.3732	1040.3706	1041.8076	1093.3468	1144.1297	1145.7793	1212.0178	1328.8117	1329.5629	1372.5703	1383.0844	1385.1348	1442.8278	3151.3604	3151.624	3164.6784	3681.1429	3694.392	3694.9501
OC1C(O)C1O	O[C@H]1[C@@H](O)[C@H]1O	
InChI=1S/C3H6O3/c4-1-2(5)3(1)6/h1-6H	InChI=1S/C3H6O3/c4-1-2(5)3(1)6/h1-6H/t1-,2+,3-
