17
gdb 1328	4.56847	1.69259	1.58646	3.3742	66.52	-0.243	-0.0155	0.2275	857.5795	0.146416	-309.727166	-309.719292	-309.718348	-309.75884	28.845	
C	-0.0613242422	 1.5498270655	-0.0792088796	-0.457622
C	 0.0091831	 0.0342193388	-0.0156689785	 0.334697
C	-1.2319408827	-0.6581120109	-0.5491475118	-0.443998
C	 1.3258215224	-0.6431947501	-0.206046351	-0.332981
C	 0.6814897109	-0.660662913	 1.1796799279	-0.124769
C	 1.3135765077	 0.0938813602	 2.2816547669	 0.157508
O	 1.2631496405	-0.2303235504	 3.4440470343	-0.272585
H	 0.8673303533	 2.0294665658	 0.2385145621	 0.120819
H	-0.2597124374	 1.8691460878	-1.1087434741	 0.121306
H	-0.8720326938	 1.9353763288	 0.5488263851	 0.126227
H	-1.4024598976	-0.386628314	-1.5975474756	 0.120371
H	-1.1408246352	-1.7469096552	-0.4950751269	 0.119057
H	-2.1213984498	-0.3655472487	 0.0196987297	 0.124753
H	 1.3690557427	-1.5881997521	-0.736389774	 0.123063
H	 2.208618985	-0.0219681734	-0.3250803892	 0.119442
H	 0.2257375028	-1.5894696783	 1.5069379245	 0.101656
H	 1.8742312433	 1.0052841892	 1.9710535504	 0.063057
99.5975	166.5372	205.7655	222.7141	276.1481	350.6003	372.9273	389.2142	432.7615	510.8336	674.5302	833.8401	871.0626	917.5374	952.6082	973.1106	1012.5248	1045.5445	1071.6998	1079.2454	1102.0172	1148.4564	1189.9283	1261.0809	1325.8754	1375.7018	1413.0131	1426.4827	1445.6507	1481.1151	1485.8024	1492.1998	1502.0174	1514.8977	1810.5391	2864.0013	3025.5825	3032.434	3087.2975	3090.636	3105.9542	3118.5785	3126.7543	3170.4408	3213.9151
CC1(C)CC1C=O	CC1(C)C[C@H]1C=O	
InChI=1S/C6H10O/c1-6(2)3-5(6)4-7/h4-5H,3H2,1-2H3	InChI=1S/C6H10O/c1-6(2)3-5(6)4-7/h4-5H,3H2,1-2H3/t5-/m0/s1
