13
gdb 253	8.13877	2.09686	1.78822	4.9064	50.45	-0.2866	0.0348	0.3214	674.7315	0.106844	-286.508374	-286.501342	-286.500397	-286.539045	24.229	
C	-0.0126624484	 1.5409237855	-0.0289307867	-0.40389
C	 0.0246953958	 0.0137284826	 0.0301868124	 0.131538
O	 0.679254752	-0.4530770409	 1.1989358291	-0.42157
C	-1.3947262259	-0.5761423308	 0.0864943016	-0.326582
C	-1.4049194703	-2.0344493915	-0.0038910845	 0.270794
N	-1.4192683659	-3.1856862677	-0.097801137	-0.3078
H	 1.0050738766	 1.9445851685	-0.03959043	 0.11664
H	-0.5199937247	 1.8933614729	-0.9328821655	 0.121145
H	-0.5289053675	 1.9455507873	 0.847247461	 0.130851
H	 0.5218678275	-0.3747474074	-0.8716990931	 0.090892
H	 1.6109137323	-0.2201172992	 1.1404340764	 0.290403
H	-1.862521593	-0.2736774106	 1.030113636	 0.158955
H	-2.0008378685	-0.1692699989	-0.7294175898	 0.148624
85.7531	152.6925	239.118	253.0708	334.711	384.9841	394.172	466.5352	553.9459	849.2261	893.7772	918.9733	980.8263	1069.7322	1112.6699	1135.8684	1212.0627	1303.2772	1315.8435	1383.7875	1407.2017	1421.5456	1452.9226	1491.9405	1497.7488	2367.2988	2988.5215	3034.0018	3051.6027	3096.2871	3104.9935	3115.7547	3828.3509
CC(O)CC#N	C[C@@H](O)CC#N	
InChI=1S/C4H7NO/c1-4(6)2-3-5/h4,6H,2H2,1H3	InChI=1S/C4H7NO/c1-4(6)2-3-5/h4,6H,2H2,1H3/t4-/m1/s1
