14
gdb 3205	3.49822	3.27436	2.02515	3.6452	57.76	-0.235	-0.0176	0.2174	657.3511	0.113362	-324.545475	-324.539064	-324.538119	-324.575634	23.815	
C	-0.0403028203	 1.6034992909	-0.0573593035	-0.413687
C	 0.0476840112	 0.0847045556	-0.0302723858	-0.101809
C	 0.7027239234	-0.6700983163	-1.2045547383	-0.058845
N	 2.092864538	-0.2094779605	-1.2564945984	-0.325751
C	 1.719562906	-1.3252124479	-0.3122563099	-0.187126
C	 1.1087825912	-0.6186868873	 0.8793978195	 0.441211
O	 1.2575777774	-0.6858558318	 2.063573896	-0.30946
H	 0.9062194425	 2.0335369548	-0.3923698745	 0.14349
H	-0.8353429878	 1.9429191814	-0.7294132797	 0.114883
H	-0.2595641986	 1.9862918317	 0.9440319887	 0.132697
H	-0.9202946796	-0.366861567	 0.2225210232	 0.102943
H	 0.2083528664	-1.101567786	-2.0652959786	 0.10678
H	 2.5486426568	-0.6621850671	-2.0491549744	 0.240293
H	 2.2121539534	-2.2871158806	-0.3750074844	 0.114383
136.3956	205.12	219.0848	252.7265	461.1047	538.0288	609.8033	701.6167	757.8694	818.9961	835.439	859.9494	905.6161	969.947	1032.0459	1041.4755	1091.6649	1100.4916	1114.9956	1141.7849	1188.7379	1275.1445	1312.6701	1340.1478	1362.2005	1402.4747	1492.1778	1504.6741	1896.9783	3037.1723	3041.6409	3105.0928	3132.3634	3197.2132	3208.7225	3468.7937
CC1C2NC2C1=O	C[C@H]1[C@H]2N[C@H]2C1=O	
InChI=1S/C5H7NO/c1-2-3-4(6-3)5(2)7/h2-4,6H,1H3	InChI=1S/C5H7NO/c1-2-3-4(6-3)5(2)7/h2-4,6H,1H3/t2-,3+,4+/m0/s1
