11
gdb 123	27.0505	2.37302	2.25333	4.1469	43.52	-0.249	0.0208	0.2698	535.2152	0.091346	-227.324775	-227.318937	-227.317993	-227.353619	19.026	
C	-0.0352258711	 1.4670849767	 0.0148299443	-0.313827
N	 0.0449477313	 0.0116830165	-0.0175944601	-0.279569
C	 0.6969351176	-0.5315940341	 1.1662995297	-0.256028
C	 0.7196814126	-1.9967901857	 1.1347831128	 0.257441
N	 0.7175674701	-3.1516311919	 1.1239368261	-0.296498
H	 0.9751489411	 1.8888764181	-0.0311470301	 0.130999
H	-0.5824571618	 1.815857805	-0.8643509381	 0.132752
H	-0.5279396118	 1.8738678472	 0.9157022667	 0.102186
H	-0.8833842139	-0.3878254967	-0.1035745326	 0.235684
H	 1.7334757093	-0.1712814452	 1.193767238	 0.157114
H	 0.2352705167	-0.2196357599	 2.1223163133	 0.129746
97.0005	175.2579	244.7022	361.0687	394.8555	547.4672	770.0554	937.1123	984.2647	998.4875	1140.5686	1158.0052	1188.1463	1270.8629	1376.8053	1459.8291	1485.2515	1489.2721	1497.8576	1518.051	2369.0458	2927.6744	2950.555	3042.7868	3061.7312	3118.0841	3531.6297
CNCC#N	CNCC#N	
InChI=1S/C3H6N2/c1-5-3-2-4/h5H,3H2,1H3	InChI=1S/C3H6N2/c1-5-3-2-4/h5H,3H2,1H3
