13
gdb 2675	20.9296	0.82667	0.8033	3.8342	62.89	-0.2685	-0.0629	0.2057	1339.6106	0.098721	-344.411146	-344.402908	-344.401963	-344.444747	25.994	
C	-0.0144370163	 1.4053329233	 0.0040321867	-0.22349
O	-0.0178049922	-0.0055866947	-0.0383432188	-0.227889
C	 0.6434580468	-0.5698791769	 1.0712708176	-0.203209
C	 0.6184530852	-2.0216203185	 0.9906168099	 0.052251
C	 0.6190549522	-3.2284517403	 0.9598877863	 0.08292
C	 0.5933670409	-4.6656374967	 0.8786436871	 0.021362
O	 1.0873635831	-5.4071906092	 1.6966462519	-0.228907
H	 1.0091463767	 1.8112435714	-0.0056101578	 0.110976
H	-0.5428859157	 1.7529932718	-0.8856249134	 0.138446
H	-0.5294116549	 1.7877540094	 0.8990939613	 0.110974
H	 1.6933250835	-0.2300687764	 1.1217009314	 0.131144
H	 0.1696492808	-0.2536807159	 2.0177240218	 0.131145
H	 0.07030844	-5.0549951273	-0.018253064	 0.104276
51.7474	79.8459	82.4896	185.1303	198.6658	223.5266	343.5528	398.1102	483.9802	628.0659	845.5195	981.5773	1010.8569	1021.4516	1136.4986	1169.3043	1181.9103	1219.7479	1249.7694	1403.5179	1420.684	1473.3855	1484.4178	1486.8397	1512.8647	1768.9375	2334.2367	2922.4976	2945.7579	2963.5495	2975.025	3021.2162	3128.8399
COCC#CC=O	COCC#CC=O	
InChI=1S/C5H6O2/c1-7-5-3-2-4-6/h4H,5H2,1H3	InChI=1S/C5H6O2/c1-7-5-3-2-4-6/h4H,5H2,1H3
