16
gdb 4027	3.78741	1.3202	0.99105	3.2795	67.1	-0.247	-0.0365	0.2105	1147.9676	0.128485	-417.057766	-417.048335	-417.04739	-417.092636	32.091	
C	-0.088278256	 1.4211741623	-0.0325546322	-0.334642
N	-0.0353719993	-0.0189404841	 0.0959717664	-0.316911
C	 0.6250660249	-0.6416376485	 1.102952851	 0.371451
O	 1.2335490019	-0.063850204	 1.9908659621	-0.381099
C	 0.5681667703	-2.1554606642	 1.0703465256	 0.27315
C	 1.2744573395	-2.9149134616	 2.1501829779	-0.481816
N	-0.0902902413	-2.6784623418	 0.1061148019	-0.183995
O	-0.0885078019	-4.068245376	 0.156653982	-0.380986
H	 0.4775883541	 1.8472507205	 0.7966352861	 0.169057
H	 0.3572101522	 1.7541261837	-0.9770090456	 0.12585
H	-1.1199851366	 1.7882921861	 0.0135356672	 0.125851
H	-0.498696643	-0.6119387974	-0.5747509186	 0.25496
H	 0.5660282065	-3.5492266767	 2.6926462302	 0.144336
H	 2.0251142026	-3.5824580989	 1.7149662236	 0.144337
H	 1.7494284723	-2.2141887414	 2.8350600687	 0.159651
H	-0.6119151464	-4.3104334282	-0.6157549662	 0.310807
62.7062	79.1774	96.8303	117.3003	182.0717	255.4828	285.5572	344.1515	408.0485	421.0903	491.226	541.2206	577.2584	722.1299	762.7656	842.4006	964.7612	1051.7839	1053.6036	1060.889	1153.7166	1178.9458	1203.9354	1289.0859	1391.3768	1398.3919	1440.7204	1474.6089	1485.2969	1497.0344	1499.4817	1573.2293	1714.986	1768.507	3025.0223	3047.2592	3074.6923	3100.8413	3152.79	3170.147	3629.3892	3808.3926
CNC(=O)C(C)=NO	CNC(=O)C(=NO)C	
InChI=1S/C4H8N2O2/c1-3(6-8)4(7)5-2/h8H,1-2H3,(H,5,7)	InChI=1S/C4H8N2O2/c1-3(6-8)4(7)5-2/h8H,1-2H3,(H,5,7)
