15
gdb 901	6.88602	2.02282	1.58289	1.8575	64.76	-0.1719	0.0525	0.2244	773.113	0.126581	-304.724431	-304.71724	-304.716296	-304.755642	26.188	
C	 0.0259024568	 1.4403739123	 0.0160455736	-0.332596
N	-0.0465722924	-0.0018130496	 0.001664234	 0.033641
C	-0.063443192	-0.7911062619	-1.1127004444	-0.081007
C	-0.0388435234	-2.1109948784	-0.7187204098	-0.238702
C	 0.0028285372	-2.1249813394	 0.7051961533	 0.240911
N	-0.0478237262	-3.2773651851	 1.5160621831	-0.603269
C	 0.0039100541	-0.8098219614	 1.1229570005	-0.182416
H	 1.0311016344	 1.7973471927	 0.272697122	 0.131679
H	-0.2354663991	 1.8231930749	-0.9727142108	 0.136644
H	-0.6827388857	 1.8522499314	 0.7417802264	 0.135184
H	-0.0901488497	-0.3502404848	-2.0969651789	 0.109075
H	-0.0723560472	-2.9718313675	-1.3694066506	 0.083245
H	 0.4624651611	-4.0495403309	 1.1055702367	 0.237218
H	 0.3188723774	-3.1100724158	 2.4447425288	 0.234312
H	 0.0263538646	-0.3820479467	 2.1126972862	 0.096082
66.1528	161.2183	176.5621	286.6937	312.6649	429.6436	598.6563	605.6839	614.4408	658.7268	725.2832	732.0488	771.8437	797.1796	995.6902	1014.6594	1075.8515	1093.7835	1120.0021	1150.3052	1212.4766	1296.6974	1379.6708	1424.3958	1440.9804	1462.5988	1483.0727	1522.0705	1553.0796	1622.1804	1657.0398	3019.8398	3079.201	3128.3585	3237.9456	3253.4831	3261.1892	3527.0694	3614.3114
CN1C=CC(N)=C1	Cn1ccc(N)c1	
InChI=1S/C5H8N2/c1-7-3-2-5(6)4-7/h2-4H,6H2,1H3	InChI=1S/C5H8N2/c1-7-3-2-5(6)4-7/h2-4H,6H2,1H3
