12
gdb 3041	13.85763	1.00902	1.00519	3.2824	65.65	-0.2613	-0.067	0.1943	1096.4309	0.089463	-323.32069	-323.313593	-323.312649	-323.352735	23.457	
O	-0.1178866819	 0.0308257906	 0.4051458857	-0.229973
C	 0.000023553	 1.1779635493	 0.0376172822	 0.019779
C	 1.2421057801	 1.9010167097	 0.0052407259	 0.007453
C	 2.2725840093	 2.5345266971	-0.0393566602	 0.134097
C	 3.4947634024	 3.2737728555	-0.0612431603	-0.166824
C	 3.7932678204	 4.1538453986	-1.239577132	-0.221221
N	 3.4664496764	 4.755376107	 0.0476410777	-0.29534
H	-0.8732307322	 1.7669695518	-0.3106680409	 0.0977
H	 4.33051128	 2.8181555644	 0.4619820291	 0.134108
H	 4.8286288307	 4.2585830551	-1.5499134105	 0.138851
H	 3.0620804143	 4.1802551828	-2.041764964	 0.133879
H	 2.4987949575	 5.0699495181	 0.0500954774	 0.247492
59.4718	98.2729	138.4586	207.9807	281.9245	484.0977	553.0003	590.0747	775.0842	809.2477	878.6157	959.5995	989.5755	1018.3273	1088.9733	1115.0296	1153.7113	1219.4049	1256.3247	1297.1476	1390.4445	1422.5979	1503.4919	1762.5663	2312.9718	2914.3771	3119.3124	3152.5198	3211.9203	3505.3062
O=CC#CC1CN1	O=CC#C[C@H]1CN1	
InChI=1S/C5H5NO/c7-3-1-2-5-4-6-5/h3,5-6H,4H2	InChI=1S/C5H5NO/c7-3-1-2-5-4-6-5/h3,5-6H,4H2/t5-/m0/s1
