15
gdb 3388	5.30428	2.28539	2.12228	1.4173	56.78	-0.2275	0.0698	0.2973	676.1909	0.124741	-345.586124	-345.579509	-345.578564	-345.616802	23.928	
C	 0.1434314647	 0.9487793623	 0.3648560356	-0.234845
O	-0.2429660744	 0.0268262159	-0.6401309162	-0.236724
C	-1.4125203043	-0.6511191412	-0.3357814508	 0.108847
C	-1.545690283	-2.1005427783	-0.7045636616	-0.194009
C	-0.2288525612	-2.8049858501	-0.3856813945	-0.079169
O	-0.2274480318	-2.2966114287	 0.9768636454	-0.282992
C	-1.4905350198	-1.6740270014	 0.7622674594	 0.042543
H	 1.0676785897	 1.4209351773	 0.024022344	 0.126561
H	-0.6186595406	 1.7281599865	 0.5142006841	 0.102102
H	 0.3259088102	 0.4391527358	 1.3189976762	 0.128141
H	-2.3321060759	-0.0734730836	-0.4628837524	 0.086737
H	-2.3462812492	-2.4954667605	-1.3152679695	 0.10162
H	-0.3101066095	-3.8968020871	-0.3808584839	 0.107944
H	 0.6535602475	-2.4866295493	-0.948078121	 0.120554
H	-2.2113698623	-1.6925886276	 1.5727677952	 0.10269
85.4008	172.9473	203.2602	259.9883	347.4415	514.3122	666.6402	730.8711	802.3829	825.6273	919.1267	965.4187	971.1253	1007.9473	1041.561	1052.3497	1072.6825	1102.6615	1129.4558	1170.2038	1173.7353	1200.2319	1249.7496	1261.6371	1312.7367	1351.5958	1424.2269	1484.0232	1487.4852	1502.4282	1507.4179	2990.5922	3042.3723	3058.5192	3072.2802	3100.0077	3121.8019	3169.0951	3203.4317
COC1C2COC12	CO[C@H]1[C@H]2CO[C@@H]12	
InChI=1S/C5H8O2/c1-6-4-3-2-7-5(3)4/h3-5H,2H2,1H3	InChI=1S/C5H8O2/c1-6-4-3-2-7-5(3)4/h3-5H,2H2,1H3/t3-,4+,5-/m1/s1
