19
gdb 1343	4.06782	2.27195	2.16866	0.1035	71.52	-0.2344	0.0313	0.2657	746.4522	0.171964	-273.806349	-273.799098	-273.798154	-273.837017	28.498	
C	-0.3540024148	 1.6031788065	-0.006704995	-0.437534
C	 0.077466741	 0.1325866865	 0.0085834402	 0.332339
C	-1.1605094768	-0.7773513435	-0.0691744088	-0.418968
C	 1.0443844606	-0.2142135964	-1.1696992943	-0.284236
C	 2.0587644311	-1.1433961413	-0.5519740418	-0.059738
C	 1.9817217936	-1.1521798632	 0.7774041569	-0.059741
C	 0.9020669639	-0.2304395397	 1.2860014278	-0.284236
H	 0.5122735343	 2.2714139104	 0.0479141342	 0.108581
H	-0.9054504721	 1.8451273227	-0.9225114222	 0.108681
H	-1.0077321926	 1.8334660373	 0.8423772255	 0.108681
H	-1.7284388554	-0.592315875	-0.9878282341	 0.106609
H	-0.8697732874	-1.8331733812	-0.0593016375	 0.116052
H	-1.8308958079	-0.6039975466	 0.780082538	 0.106609
H	 0.509882416	-0.664706208	-2.0155266419	 0.094822
H	 1.535136678	 0.6866347141	-1.5659202166	 0.096913
H	 2.7758025544	-1.7037095611	-1.1425056772	 0.086715
H	 2.6261721955	-1.7207691197	 1.439380124	 0.086715
H	 1.3430766784	 0.6647375964	 1.748088777	 0.096913
H	 0.2737812604	-0.6916245583	 2.0584166856	 0.094823
94.7358	247.2729	276.6205	308.4387	334.9146	373.5152	414.2426	419.3646	582.631	695.5582	767.0505	778.7463	902.1376	914.1866	944.2236	953.2665	976.4531	979.354	985.3961	989.7827	1045.813	1124.9097	1130.2763	1166.9612	1216.7628	1228.9484	1293.3665	1296.2839	1341.7682	1368.5099	1398.4894	1419.7814	1482.1233	1483.4055	1486.777	1498.4619	1504.3947	1509.004	1689.7447	2998.7323	3000.0612	3018.8491	3024.4831	3037.8214	3039.2082	3084.9202	3090.905	3091.0398	3097.1446	3175.2918	3201.2186
CC1(C)CC=CC1	CC1(C)CC=CC1	
InChI=1S/C7H12/c1-7(2)5-3-4-6-7/h3-4H,5-6H2,1-2H3	InChI=1S/C7H12/c1-7(2)5-3-4-6-7/h3-4H,5-6H2,1-2H3
