21
gdb 2722	13.5649	0.75306	0.73294	0.9602	72.75	-0.2495	0.09	0.3395	1600.4792	0.193179	-312.119261	-312.109727	-312.108783	-312.153914	32.495	
C	 0.0366665921	 1.5532449067	 0.0100387378	-0.3801
C	-0.0009133178	 0.0228236265	 0.0020965344	-0.162394
C	-1.4245244801	-0.5450775851	 0.012722293	-0.161849
C	-1.4640960986	-2.0761352253	 0.0048020733	-0.195033
C	-2.8813970013	-2.6316068907	 0.0154635234	-0.049901
O	-2.8176993152	-4.0417487946	 0.0071860441	-0.230006
C	-4.0859644651	-4.6472656309	 0.0161310407	-0.226057
H	 1.0648044121	 1.9285142842	 0.0021762122	 0.111174
H	-0.4751792924	 1.9664488908	-0.866359875	 0.112813
H	-0.4581679554	 1.9568620277	 0.900561382	 0.112813
H	 0.5307758703	-0.353473144	-0.8817506116	 0.09557
H	 0.5476553094	-0.3629844995	 0.871408225	 0.09557
H	-1.9568611396	-0.1677541776	 0.8972460631	 0.092127
H	-1.9737520972	-0.1582399013	-0.8572448543	 0.092127
H	-0.9451049403	-2.4621958036	-0.8811174425	 0.10357
H	-0.9281447143	-2.4717228792	 0.8763034926	 0.103569
H	-3.4265589059	-2.2784151977	 0.9090842859	 0.080452
H	-3.4436661123	-2.26878116	-0.8635787692	 0.080452
H	-3.9341093829	-5.7295986843	 0.008797149	 0.124426
H	-4.6646281287	-4.3767177179	 0.9144783121	 0.100339
H	-4.6818144668	-4.3670501142	-0.8679037462	 0.100339
63.4502	84.3349	102.3844	131.1854	150.4878	238.705	243.2283	256.7578	311.1143	424.2804	507.2733	738.0557	775.1307	864.4372	895.4635	986.0091	988.3196	1023.038	1059.3343	1069.3722	1134.2398	1166.6348	1175.4738	1205.0248	1225.9154	1242.4718	1278.1866	1298.9139	1318.5237	1335.7975	1354.6285	1401.0194	1412.4059	1428.5687	1481.6004	1484.9818	1486.4346	1490.2971	1499.2259	1500.2318	1506.1975	1514.6208	1533.8194	2937.3713	2962.1976	2964.6373	3002.8156	3004.2731	3017.0388	3027.0607	3028.65	3031.537	3051.0219	3075.38	3095.0475	3100.8044	3110.2049
CCCCCOC	CCCCCOC	
InChI=1S/C6H14O/c1-3-4-5-6-7-2/h3-6H2,1-2H3	InChI=1S/C6H14O/c1-3-4-5-6-7-2/h3-6H2,1-2H3
