15
gdb 844	6.63097	2.06353	1.60515	3.2012	64.01	-0.206	0.0397	0.2457	780.073	0.125973	-304.75578	-304.748592	-304.747648	-304.787046	25.66	
C	 0.0354968138	 1.4799982724	 0.0146658691	-0.49804
C	 0.0223410853	-0.0121047381	-0.0214920603	 0.339251
N	 0.0350411222	-0.7588326685	-1.1043894699	-0.338197
C	 0.0148667802	-2.0715040679	-0.6725742044	 0.283132
C	 0.0217016301	-3.2120293588	-1.6377856428	-0.487762
C	-0.0104085107	-2.1087822317	 0.6960464856	-0.189683
N	-0.0054105745	-0.7881802063	 1.1023939465	-0.273023
H	 0.9131524487	 1.8697351673	 0.5436047046	 0.128691
H	 0.0590764108	 1.8514572006	-1.0104375606	 0.157009
H	-0.8549058648	 1.886163999	 0.5088192195	 0.128753
H	 0.9141156998	-3.1867638884	-2.2727383808	 0.129755
H	 0.003251284	-4.1718591957	-1.1139695958	 0.112835
H	-0.8464603702	-3.1703025476	-2.3046818493	 0.129755
H	-0.0307770347	-2.9229861626	 1.401607565	 0.119152
H	-0.0196716299	-0.4609652036	 2.0534466835	 0.258373
77.6957	118.8687	199.2023	262.7716	309.6633	404.3328	502.0883	611.407	654.9122	700.7353	720.024	733.2118	969.5708	986.9713	1013.5661	1053.3818	1061.7583	1065.7664	1110.8353	1245.0044	1290.1763	1370.2554	1410.8735	1416.2947	1441.0893	1476.3455	1483.9452	1492.3165	1503.5591	1575.065	1616.0199	3028.2031	3032.11	3076.4289	3085.2985	3112.8597	3148.6844	3269.1131	3665.2271
CC1=NC(C)=CN1	Cc1nc(C)c[nH]1	
InChI=1S/C5H8N2/c1-4-3-6-5(2)7-4/h3H,1-2H3,(H,6,7)	InChI=1S/C5H8N2/c1-4-3-6-5(2)7-4/h3H,1-2H3,(H,6,7)
