17
gdb 1135	4.92901	1.86219	1.77689	2.9233	64.37	-0.2386	-0.0171	0.2215	792.7756	0.146177	-309.738198	-309.730638	-309.729694	-309.769847	28.491	
C	-0.3627647187	 1.5986791363	-0.0408655467	-0.447484
C	 0.0305686673	 0.1250288267	 0.0142982463	 0.338583
C	-1.1766800219	-0.7857035321	-0.2169625569	-0.437182
C	 1.2517484481	-0.2699908131	-0.8910591205	-0.385156
C	 1.9202676445	-0.8792899334	 0.3485868558	 0.412409
O	 2.873227959	-1.5841100205	 0.5149046007	-0.291668
C	 0.8537279468	-0.2947924063	 1.2843972174	-0.385156
H	 0.5028248707	 2.2492496491	 0.1249206677	 0.111505
H	-0.7922214417	 1.8561471983	-1.0156852872	 0.117369
H	-1.1105542718	 1.8363110358	 0.7242084698	 0.117369
H	-1.6278483056	-0.5982100323	-1.1976505525	 0.116875
H	-0.8940916127	-1.8435558767	-0.1773207613	 0.116916
H	-1.9465678699	-0.6180706784	 0.5443701531	 0.116875
H	 1.0652389549	-0.9569875336	-1.7215205237	 0.1244
H	 1.8137461745	 0.5897236736	-1.272819867	 0.124972
H	 1.2407024732	 0.5540159866	 1.859259583	 0.124972
H	 0.3880699117	-0.99918347	 1.9796757396	 0.1244
41.1431	234.9454	264.2922	300.7352	329.0586	351.4363	363.8314	419.4331	502.6445	594.6101	676.3141	732.3982	855.128	879.5381	924.5528	962.7107	976.7626	988.6626	1066.8555	1080.7511	1137.3257	1182.105	1196.5963	1228.1267	1286.0875	1300.951	1405.5567	1420.5673	1425.4032	1448.5594	1483.931	1490.7918	1504.8334	1505.5385	1891.4165	3020.2401	3024.6666	3043.9511	3049.3485	3088.4282	3090.0309	3093.4377	3094.0951	3103.056	3103.6545
CC1(C)CC(=O)C1	CC1(C)CC(=O)C1	
InChI=1S/C6H10O/c1-6(2)3-5(7)4-6/h3-4H2,1-2H3	InChI=1S/C6H10O/c1-6(2)3-5(7)4-6/h3-4H2,1-2H3
