18
gdb 230	4.35981	2.71989	2.7163	1.0896	60.03	-0.2455	0.079	0.3245	644.1742	0.163225	-272.835594	-272.827416	-272.826471	-272.867062	29.597	
C	 0.0870384786	 1.3943766504	 0.00872385	-0.240202
O	-0.03001724	-0.0089952702	 0.0024001835	-0.270552
C	-1.3502802435	-0.5746761365	 0.0119413268	 0.37199
C	-2.1371215682	-0.1662388711	-1.2440129586	-0.412439
C	-1.0885288875	-2.0844494305	 0.0012859355	-0.393839
C	-2.1129470216	-0.1799150122	 1.2870354554	-0.412432
H	 1.1582484723	 1.6139429766	-0.0001429198	 0.124254
H	-0.3655421424	 1.865799749	-0.875375676	 0.102383
H	-0.3488638948	 1.8563895645	 0.9060721101	 0.102381
H	-1.5587149538	-0.3929100001	-2.1447157111	 0.118696
H	-3.0821342651	-0.7156953224	-1.2948346974	 0.113295
H	-2.3789422457	 0.9005799173	-1.2479453043	 0.11154
H	-0.5039284959	-2.3724086858	 0.8795022855	 0.117435
H	-2.0283144239	-2.6444263948	 0.0072542334	 0.106529
H	-0.5208664448	-2.362852675	-0.8910102939	 0.117433
H	-2.3545322403	 0.8867757012	 1.3071220427	 0.111539
H	-3.056879851	-0.7299763117	 1.3499563615	 0.113293
H	-1.5174675024	-0.4162530186	 2.1740228967	 0.118696
67.5566	178.8646	224.0909	251.9686	275.3026	282.568	334.8174	360.3339	407.3889	454.511	506.4206	726.4877	860.1046	906.8588	917.3349	953.2014	1034.8024	1041.8827	1124.2043	1181.3363	1207.4198	1231.2724	1251.5006	1285.3898	1390.8899	1393.4391	1419.6495	1468.2112	1475.849	1484.2998	1486.4973	1490.1182	1500.7115	1506.1987	1512.9376	1522.5515	2987.5421	3031.7223	3038.4688	3040.2016	3045.7434	3102.3323	3106.0269	3110.5796	3112.872	3114.6212	3119.3164	3121.2235
COC(C)(C)C	COC(C)(C)C	
InChI=1S/C5H12O/c1-5(2,3)6-4/h1-4H3	InChI=1S/C5H12O/c1-5(2,3)6-4/h1-4H3
