10
gdb 768	9.67915	3.70809	2.6898	1.525	43.82	-0.2181	0.006	0.2241	451.4203	0.076571	-297.530335	-297.525359	-297.524415	-297.558364	18.02	
N	-0.0360646378	 1.3805274768	 0.1670292003	-0.590762
C	 0.0356223454	-0.0017392706	 0.0466835412	 0.333251
N	-1.0548878199	-0.7695170842	 0.0225299125	-0.283238
N	-0.546956216	-2.0059726008	-0.0232281646	-0.073947
N	 0.7682313578	-2.1060643187	-0.0381037348	-0.187448
C	 1.1738292656	-0.8364411228	 0.0075248704	-0.110826
H	 0.6825824811	 1.8712377768	-0.3462521277	 0.251567
H	-0.9532445119	 1.7377193807	-0.0651755293	 0.256271
H	-1.1420521621	-2.8167102876	-0.0406780019	 0.290033
H	 2.2215396478	-0.5826999595	 0.013013414	 0.1151
246.5872	328.2035	390.8895	433.8252	663.478	704.334	720.4426	762.9351	841.752	990.6357	1023.7608	1100.2406	1179.0369	1198.8794	1282.3436	1376.0516	1442.57	1520.0468	1592.933	1651.8968	3270.0672	3554.7461	3651.0342	3684.2848
NC1=NNN=C1	Nc1n[nH]nc1	
InChI=1S/C2H4N4/c3-2-1-4-6-5-2/h1H,(H3,3,4,5,6)	InChI=1S/C2H4N4/c3-2-1-4-6-5-2/h1H,(H3,3,4,5,6)
