13
gdb 138	20.79686	2.01268	1.9004	2.7191	42.52	-0.2607	0.0779	0.3386	618.0376	0.113242	-269.468415	-269.461727	-269.460783	-269.498456	22.005	
O	-0.0888800952	 1.4263262953	 0.0103811887	-0.41937
C	 0.01430791	 0.0106153954	 0.0019050922	-0.072325
C	-1.3978524236	-0.558024834	 0.0124121893	-0.151339
C	-1.4219357914	-2.0801992033	 0.004462131	-0.072325
O	-2.780389527	-2.4918421034	 0.0149960867	-0.419371
H	 0.8003455451	 1.7920167183	 0.004230813	 0.285038
H	 0.5547637125	-0.3433042635	-0.8919741973	 0.083209
H	 0.5717411287	-0.35268832	 0.8814762379	 0.083205
H	-1.9262744926	-0.1939409682	 0.899957196	 0.115905
H	-1.9431583136	-0.1845125564	-0.8608898512	 0.115922
H	-0.8985672662	-2.4591598266	-0.8893213487	 0.083206
H	-0.8819194169	-2.46869181	 0.8841322229	 0.083208
H	-2.8026668244	-3.4530781857	 0.0106675495	 0.285038
107.4036	112.6588	193.6864	268.4444	270.3867	412.0491	459.1241	779.789	889.836	1012.6268	1025.8822	1061.2015	1102.3187	1176.6062	1214.1018	1225.9813	1282.2096	1305.583	1306.3273	1332.27	1466.4174	1467.952	1499.8439	1524.053	1536.0865	2950.2848	2959.5806	2974.6588	2982.2334	3050.8395	3097.1467	3829.9629	3830.1333
OCCCO	OCCCO	
InChI=1S/C3H8O2/c4-2-1-3-5/h4-5H,1-3H2	InChI=1S/C3H8O2/c4-2-1-3-5/h4-5H,1-3H2
