17
gdb 1948	8.12432	1.46687	1.38058	0.8831	70.76	-0.253	0.052	0.3049	911.2808	0.147597	-272.544482	-272.536998	-272.536054	-272.575756	28.164	
C	-0.2066470714	 1.5080439313	-0.0223823027	-0.392754
C	 0.0000606672	-0.0038522626	 0.0057648335	 0.023554
C	 1.1715155623	-0.5083719221	-0.8870365769	-0.233033
C	 2.0755045499	-0.599949644	 0.3866176589	-0.141382
C	 0.7747553948	-0.5227783021	 1.2525705626	-0.233038
C	 2.9459249477	-1.7463310395	 0.540270449	 0.299473
C	 3.6486561892	-2.7151611511	 0.6640492344	-0.451604
H	 0.7316088804	 2.0466857319	 0.1552239631	 0.114431
H	-0.5958183956	 1.8344088352	-0.9929973331	 0.114951
H	-0.9187099451	 1.8226782024	 0.7483529997	 0.114951
H	-0.9549097714	-0.5051068597	-0.1746949965	 0.070166
H	 0.9817118407	-1.498408358	-1.3071295114	 0.110461
H	 1.517138628	 0.1549854611	-1.684112254	 0.100397
H	 2.657924351	 0.3199546159	 0.5008179952	 0.101441
H	 0.8100125925	 0.1293151966	 2.129130461	 0.100398
H	 0.4493339979	-1.5177365793	 1.5637540134	 0.110461
H	 4.2746607719	-3.5653873763	 0.7743876339	 0.191128
83.1617	148.4282	218.5147	248.7751	329.0706	359.0375	510.9994	513.5555	606.4651	622.4288	626.5321	797.0611	821.4497	883.4551	903.1018	936.2972	951.812	1031.6301	1035.2832	1102.2933	1137.9689	1138.3693	1229.08	1235.8168	1249.2524	1274.9556	1275.2638	1348.6818	1372.9356	1410.7804	1472.7254	1493.1122	1497.1745	1499.6637	2231.1198	3024.0136	3049.2883	3055.3726	3060.0402	3067.1063	3092.5415	3094.4496	3119.4874	3123.1682	3505.699
CC1CC(C1)C#C	C[C@H]1C[C@@H](C1)C#C	
InChI=1S/C7H10/c1-3-7-4-6(2)5-7/h1,6-7H,4-5H2,2H3	InChI=1S/C7H10/c1-3-7-4-6(2)5-7/h1,6-7H,4-5H2,2H3/t6-,7-
