15
gdb 1633	4.74639	2.05878	1.46222	2.0631	61.15	-0.2483	-0.0133	0.235	814.9669	0.124416	-341.874216	-341.866219	-341.865275	-341.906845	27.389	
C	-0.0862363849	 1.4976472355	 0.009580838	-0.350636
N	-0.0064442951	 0.0387196528	 0.005362243	-0.104339
C	 0.0902429472	-0.6370068679	 1.2216714925	 0.098364
N	 0.1108380389	-0.0191586142	 2.3328462243	-0.476659
C	-0.0225607486	-0.7165077809	-1.1711445863	 0.414879
C	-0.1290158227	 0.0673882042	-2.4642474446	-0.501253
O	 0.044786939	-1.9289978072	-1.1568073568	-0.346996
H	 0.7558222623	 1.942786271	-0.5281283324	 0.132402
H	-1.0198295412	 1.8453684873	-0.4418780134	 0.132394
H	-0.0532031703	 1.8173804256	 1.050082768	 0.18261
H	 0.1419218283	-1.7145825446	 1.0703817445	 0.145213
H	 0.1848928965	-0.6850438067	 3.0990542682	 0.231885
H	 0.7108639805	 0.7588147397	-2.5840223307	 0.144872
H	-0.1297289995	-0.6470359841	-3.2862874425	 0.152375
H	-1.0474585005	 0.6616431496	-2.4981061717	 0.14489
55.0091	95.3306	164.1154	200.6678	266.1772	294.6598	369.4137	425.4351	548.5663	593.9969	629.0953	796.876	831.7028	969.4691	1027.0597	1051.595	1087.034	1130.222	1154.1661	1202.7753	1342.4632	1360.2095	1394.2492	1405.7108	1454.6824	1467.5325	1479.4421	1505.7912	1513.0581	1712.4833	1787.2204	3042.8547	3049.3194	3103.8169	3110.9862	3146.9057	3164.1649	3166.4418	3511.6014
CN(C=N)C(C)=O	CN(C=N)C(=O)C	
InChI=1S/C4H8N2O/c1-4(7)6(2)3-5/h3,5H,1-2H3	InChI=1S/C4H8N2O/c1-4(7)6(2)3-5/h3,5H,1-2H3
