16
gdb 1283	7.81861	1.18276	1.05662	4.1238	58.9	-0.2453	0.0284	0.2737	1099.2691	0.134589	-362.935404	-362.926652	-362.925708	-362.969766	29.358	
C	-0.0849527674	 1.479703131	 0.094496814	-0.384452
C	 0.052786775	-0.0301874928	 0.0061818589	-0.026485
O	 0.6787601199	-0.4902207298	 1.1878717537	-0.21733
C	 0.8691710074	-1.8712092889	 1.2075326035	-0.153199
C	 1.674553062	-2.2513441204	 2.4561952632	 0.371312
N	 1.5740851851	-3.5788042789	 2.7819800515	-0.524096
O	 2.3805634681	-1.474605145	 3.056470971	-0.32814
H	 0.8978669821	 1.9463953046	 0.2021054436	 0.134515
H	-0.5624888526	 1.8719443756	-0.8083346058	 0.113067
H	-0.6924018591	 1.7586480907	 0.9598853503	 0.129733
H	-0.9369962622	-0.5044915118	-0.1118435432	 0.083158
H	 0.6523825814	-0.3163339042	-0.8750111315	 0.086763
H	-0.0936258248	-2.4142649731	 1.1940578891	 0.085373
H	 1.436738817	-2.2158667414	 0.3238648475	 0.112006
H	 0.8352879131	-4.1567643667	 2.4195105025	 0.255672
H	 2.0372873748	-3.8820896389	 3.6236155914	 0.262103
29.3454	75.3667	116.2358	137.4611	240.6795	254.6828	314.9928	354.0111	479.4824	514.95	602.3575	668.4682	822.3584	854.9066	912.4991	1022.1766	1054.2004	1093.8022	1153.8277	1188.5269	1192.8909	1260.5113	1297.184	1297.5738	1393.6552	1409.8574	1446.294	1482.2186	1494.7544	1500.8595	1534.1038	1618.4832	1827.899	2931.7292	2951.9624	2956.5041	2974.2767	3047.0004	3121.1964	3126.05	3595.3092	3726.9274
CCOCC(N)=O	CCOCC(=O)N	
InChI=1S/C4H9NO2/c1-2-7-3-4(5)6/h2-3H2,1H3,(H2,5,6)	InChI=1S/C4H9NO2/c1-2-7-3-4(5)6/h2-3H2,1H3,(H2,5,6)
