12
gdb 1825	5.82532	2.35561	1.71755	2.4934	51.92	-0.2786	-0.0143	0.2644	676.8746	0.091258	-360.574432	-360.568475	-360.567531	-360.604905	21.257	
N	-0.0563573612	 1.2656954913	-0.1296637142	-0.512282
C	-0.0394633142	 0.0153394183	-0.0189278137	 0.413084
C	-1.2429919154	-0.8995186074	 0.0646098916	-0.305049
C	-0.6479891591	-2.305175238	-0.0669335412	-0.360295
C	 0.8527232329	-2.0982174622	 0.0730873405	 0.424129
O	 1.7219122433	-2.9058596163	 0.1668919476	-0.305488
O	 1.1217840395	-0.7406243189	 0.0597026007	-0.20926
H	 0.8897460994	 1.6487909168	-0.1528600621	 0.238474
H	-1.7343166912	-0.749365718	 1.0302961734	 0.152562
H	-1.9666985046	-0.641919973	-0.7095472723	 0.152293
H	-0.9886402707	-3.0190514516	 0.6848515503	 0.154217
H	-0.8328104587	-2.7564454109	-1.0466858405	 0.157615
60.5624	135.1277	378.7879	521.3769	538.9843	549.6181	632.7258	669.0856	814.3223	823.9628	909.9205	916.3389	1014.8732	1034.911	1067.4659	1129.7283	1158.5712	1235.9509	1274.3317	1316.2014	1334.7029	1459.9887	1480.5315	1793.4845	1918.5662	3072.2481	3074.298	3121.917	3133.5545	3485.5489
N=C1CCC(=O)O1	[NH][C]1CCC(=O)O1	
InChI=1S/C4H5NO2/c5-3-1-2-4(6)7-3/h5H,1-2H2	InChI=1S/C4H5NO2/c5-3-1-2-4(6)7-3/h5H,1-2H2
