17
gdb 1757	5.3212	1.46681	1.34413	1.9397	60.18	-0.2369	0.0655	0.3023	931.4726	0.146208	-346.828689	-346.820226	-346.819282	-346.861748	30.05	
O	 0.0174076667	 1.4712116305	 0.2061122505	-0.42177
C	-0.0063917442	 0.0527910119	 0.2772300253	-0.060166
C	-1.3477573468	-0.5320160947	-0.1782336872	-0.246228
C	-1.3982483647	-2.0395168749	-0.0854806702	 0.440587
O	-0.4472723276	-2.5943084792	-0.9641810032	-0.474348
C	-1.6724841203	-2.7079089318	 1.2361537932	-0.330474
C	-2.7113452094	-2.7439070585	 0.1233009922	-0.33139
H	-0.0367816672	 1.7173772135	-0.7227088951	 0.27993
H	 0.8094172431	-0.3978808913	-0.3035911143	 0.105891
H	 0.1685189477	-0.1940426012	 1.3298976393	 0.108078
H	-2.151183411	-0.0982173778	 0.4256923749	 0.103554
H	-1.5341213567	-0.2408372379	-1.221307782	 0.094928
H	-0.3650549732	-3.5349082529	-0.7811979404	 0.280959
H	-1.1440463542	-3.6300508988	 1.4608925571	 0.106123
H	-1.8664862516	-2.0915019615	 2.107809748	 0.119976
H	-3.6152029589	-2.1547217979	 0.237587428	 0.116377
H	-2.8578948016	-3.6873004376	-0.3935392261	 0.107972
77.1732	94.1512	106.4013	166.8508	287.9136	315.2984	337.6758	381.0221	440.38	508.8137	738.7425	768.9298	791.4781	868.9201	929.8018	948.5189	976.3678	1037.4969	1043.9164	1059.8108	1065.5196	1076.1529	1154.2555	1182.5255	1185.4534	1278.6692	1310.5053	1347.3245	1394.7476	1416.5	1435.2017	1459.0809	1476.8359	1501.9284	1515.9294	3015.9796	3018.6416	3069.0364	3090.0444	3118.8851	3125.3508	3198.832	3214.919	3815.9845	3829.7811
OCCC1(O)CC1	OCCC1(O)CC1	
InChI=1S/C5H10O2/c6-4-3-5(7)1-2-5/h6-7H,1-4H2	InChI=1S/C5H10O2/c6-4-3-5(7)1-2-5/h6-7H,1-4H2
