17
gdb 3175	5.2895	2.25974	1.9304	1.5853	63.73	-0.2405	0.0931	0.3336	718.7398	0.149924	-309.7076	-309.701045	-309.700101	-309.738517	24.69	
C	-0.1386955431	 1.449183604	 0.0130715424	-0.306461
C	 1.2520609961	 0.8554373369	-0.0123592187	-0.332804
C	 0.05446798	-0.0467986369	 0.0134223888	 0.348954
C	-0.3457859283	-0.8914295648	 1.2138004884	-0.298855
C	-1.581203822	-1.6034307855	 0.6561487151	-0.064479
O	-1.2759696127	-1.8716325584	-0.7092486757	-0.260972
C	-0.3568859276	-0.891362956	-1.1920658354	-0.123713
H	-0.4743309357	 1.925334306	 0.928987728	 0.110716
H	-0.5080820648	 1.9173294894	-0.8940266016	 0.111988
H	 1.8191543969	 0.9269057626	-0.9355134747	 0.112956
H	 1.8584734159	 0.9294416167	 0.8846737262	 0.113006
H	 0.4345396136	-1.6228484783	 1.4558172448	 0.105417
H	-0.5540622404	-0.3004371533	 2.109513416	 0.099553
H	-1.8047637928	-2.5567534404	 1.1440361387	 0.103826
H	-2.4700502157	-0.9569766156	 0.7374243782	 0.088734
H	-0.8268233645	-0.2826704013	-1.9776167771	 0.093956
H	 0.4981931552	-1.417326125	-1.6384581736	 0.098177
44.9419	182.747	271.0602	335.1259	393.7356	508.1806	642.5363	768.4533	780.45	864.6814	893.2958	911.1605	930.2608	946.8377	984.3912	987.9442	1055.0277	1058.529	1081.0052	1097.7762	1138.217	1188.2215	1188.5391	1219.278	1236.714	1287.3946	1314.3201	1343.4117	1374.5277	1417.5783	1467.0293	1486.8117	1504.8396	1519.2828	1531.1583	2971.1261	2993.0201	3022.8642	3035.0284	3080.0521	3098.5198	3119.5317	3123.7489	3197.3419	3212.4904
C1CC11CCOC1	C1CC21CCOC2	
InChI=1S/C6H10O/c1-2-6(1)3-4-7-5-6/h1-5H2	InChI=1S/C6H10O/c1-2-6(1)3-4-7-5-6/h1-5H2
