14
gdb 707	7.4064	3.88262	3.77802	0.339	55.33	-0.2073	0.0868	0.2941	449.4946	0.121076	-233.219124	-233.214384	-233.21344	-233.2467	19.575	
C	-0.0011695895	 1.4954905121	-0.1020858615	-0.294696
C	 1.3141596489	 0.7723997412	 0.0123183656	-0.048157
C	 0.0094557036	-0.0047880409	 0.0207640836	-0.048164
C	 0.4458825254	-0.7514822263	-1.2731173073	-0.048158
C	 0.7832994337	 0.1532562895	-2.4279490359	-0.294696
C	 1.7505727292	 0.0257294103	-1.2815806844	-0.048164
H	-0.3001995848	 2.0073928592	 0.8082416763	 0.109402
H	-0.3148941095	 2.0123712194	-1.0022364477	 0.110614
H	 1.9948220191	 0.9491672283	 0.835086872	 0.085501
H	-0.4622133036	-0.5144425645	 0.850990875	 0.085501
H	 0.2983701319	-1.8157335148	-1.4039046814	 0.085501
H	 1.0934678832	-0.37718759	-3.3238198679	 0.109402
H	 0.2382725475	 1.0658483745	-2.6423814302	 0.110614
H	 2.755382145	-0.352076408	-1.4198441162	 0.085501
320.2201	416.8973	517.5963	691.9843	712.1769	716.3201	795.9612	870.2228	891.1763	891.3846	897.9512	965.9593	1000.4154	1024.4003	1029.2318	1045.6961	1064.6731	1068.1832	1099.144	1102.9367	1164.4825	1210.3319	1255.7229	1293.6768	1318.5388	1366.7485	1476.0478	1516.059	3120.7003	3133.2924	3180.6853	3186.8754	3190.5922	3198.8872	3201.3875	3209.5391
C1C2C1C1CC21	C1[C@H]2[C@@H]1[C@H]1C[C@@H]21	
InChI=1S/C6H8/c1-3-4(1)6-2-5(3)6/h3-6H,1-2H2	InChI=1S/C6H8/c1-3-4(1)6-2-5(3)6/h3-6H,1-2H2/t3-,4+,5-,6+
