13
gdb 3383	6.34439	1.92592	1.85795	3.413	54.62	-0.238	-0.0235	0.2145	695.9656	0.101444	-344.408452	-344.402404	-344.40146	-344.43855	21.94	
O	-0.038898309	 0.0225041692	 0.3297559721	-0.269615
C	-0.0152015323	 1.1847004753	-0.0009188749	 0.151023
C	 1.2284462997	 1.9902285786	-0.0636927908	-0.130058
C	 1.5912401907	 2.951515728	-1.208453781	-0.148133
C	 0.3614742296	 3.7188355044	-1.6809444944	-0.096243
O	 0.0391209973	 4.0982412267	-0.3119876817	-0.27899
C	 1.2463244037	 3.4895721047	 0.1454129054	 0.079009
H	-0.9463588575	 1.7267462995	-0.2612852102	 0.092816
H	 2.1005078956	 1.4744679734	 0.3280891799	 0.115603
H	 2.5374307341	 2.8666125206	-1.7239719871	 0.117886
H	 0.6188052161	 4.6074123968	-2.2668902723	 0.123654
H	-0.4497559133	 3.1724249482	-2.1718123409	 0.120589
H	 1.8120675053	 3.9888367445	 0.9231654157	 0.12246
106.4432	189.6427	237.6122	400.7229	439.847	571.4764	753.6561	792.8035	809.6725	933.7824	956.8222	974.2944	982.5957	1044.3942	1053.838	1058.7267	1068.4339	1107.4616	1161.1391	1189.3804	1255.2552	1305.2218	1334.9022	1388.158	1450.447	1518.8147	1808.4863	2931.3893	3041.1867	3092.4183	3166.0708	3187.2168	3216.5568
O=CC1C2COC12	O=C[C@H]1[C@H]2CO[C@@H]12	
InChI=1S/C5H6O2/c6-1-3-4-2-7-5(3)4/h1,3-5H,2H2	InChI=1S/C5H6O2/c6-1-3-4-2-7-5(3)4/h1,3-5H,2H2/t3-,4+,5-/m0/s1
