15
gdb 2002	6.21612	2.01519	2.01511	0.6199	68.61	-0.2575	0.0461	0.3036	703.5632	0.12584	-271.300649	-271.294643	-271.293699	-271.330151	24.014	
C	 0.0197051042	-1.1517763371	-0.0047637	-0.362892
C	 0.0016647491	 0.0513448733	 0.0021923439	 0.053247
C	-0.0198991017	 1.4858250789	 0.0105031569	 0.270674
C	-0.6424312218	 2.4252084296	 1.0989743913	-0.24346
C	-0.0484019157	 3.37555813	 0.021339278	-0.06794
C	 1.2075724341	 2.4593953442	 0.001448549	-0.24334
C	-0.6676774149	 2.4371683937	-1.0522317898	-0.243302
H	 0.0356026395	-2.2133475572	-0.0110057137	 0.176672
H	-1.7312186469	 2.3974661886	 1.1905451186	 0.097155
H	-0.1539215768	 2.4161756508	 2.0766896789	 0.097157
H	-0.0647803774	 4.4645016533	 0.027610349	 0.077517
H	 1.8315016248	 2.4528497621	 0.8988008571	 0.097131
H	 1.8105106121	 2.4629429215	-0.9101881746	 0.097143
H	-0.2020885061	 2.4390367501	-2.0410869078	 0.097127
H	-1.7582980525	 2.4102484182	-1.1190961467	 0.097112
168.9669	170.319	482.8125	482.9318	549.1019	556.9772	558.5591	630.8891	630.9038	793.8646	795.1802	888.3615	945.0052	945.5349	962.0374	963.1672	994.474	1097.3831	1097.8839	1130.2758	1130.712	1163.7238	1164.8136	1233.4071	1233.635	1239.6932	1287.8144	1497.2943	1498.5371	1551.8281	2232.4936	3052.0003	3052.4228	3059.2841	3118.5747	3123.9887	3124.4051	3125.3211	3502.7157
C#CC12CC(C1)C2	C#C[C@@]12C[C@@H](C1)C2	
InChI=1S/C7H8/c1-2-7-3-6(4-7)5-7/h1,6H,3-5H2	InChI=1S/C7H8/c1-2-7-3-6(4-7)5-7/h1,6H,3-5H2/t6-,7+
