11
gdb 206	9.23894	3.65185	2.62644	3.0074	47.82	-0.1849	0.0391	0.2241	471.183	0.087869	-281.504579	-281.499371	-281.498427	-281.532762	19.414	
N	 0.0102841645	 1.4041916096	 0.1684985716	-0.594136
C	-0.0421263159	 0.0113203294	 0.0553080328	 0.297781
C	-1.1373394933	-0.8203479281	 0.0295734382	-0.185351
N	-0.6055163733	-2.1012380937	-0.0197703003	-0.224251
C	 0.7433128076	-1.9806452063	-0.0179024221	 0.015903
N	 1.1203069845	-0.7193450038	 0.0237846745	-0.300651
H	 0.9205924262	 1.7455508691	-0.1126292382	 0.247288
H	-0.7157318845	 1.8788789611	-0.3511006408	 0.239372
H	-2.1979654564	-0.639551745	 0.0503494911	 0.114497
H	-1.1305669031	-2.9579120282	-0.0526919344	 0.263539
H	 1.4031221038	-2.8343855042	-0.0503555824	 0.126008
215.0928	310.4651	394.7389	468.6484	636.785	649.2068	681.595	708.2901	784.4825	802.0786	948.4205	992.041	1082.1827	1096.3859	1155.0791	1263.0218	1325.2459	1388.099	1480.8684	1526.4587	1620.7887	1648.1694	3253.8658	3282.4022	3542.4359	3637.737	3675.5284
NC1=CNC=N1	Nc1c[nH]cn1	
InChI=1S/C3H5N3/c4-3-1-5-2-6-3/h1-2H,4H2,(H,5,6)	InChI=1S/C3H5N3/c4-3-1-5-2-6-3/h1-2H,4H2,(H,5,6)
