15
gdb 2755	4.27381	2.3071	1.70756	1.2521	62.49	-0.2505	0.0383	0.2888	747.5672	0.123684	-308.46684	-308.45949	-308.458546	-308.498633	26.432	
C	-0.2674138273	 1.5108460512	-0.064820513	-0.399269
C	 0.0829155312	 0.0391886164	-0.0379488425	 0.157018
O	 1.2810071609	-0.2623793389	-0.7901619201	-0.286134
C	 1.9492939086	-0.8068801644	 0.358421484	-0.072767
C	 0.7110089431	-0.5658649908	 1.2658535878	-0.255866
C	 0.8830254691	 0.2912018705	 2.4186422978	 0.346913
C	 1.037550973	 1.0055874012	 3.3738382413	-0.474763
H	 0.5453221937	 2.1160808182	 0.3442819502	 0.130705
H	-0.4538477017	 1.8238619388	-1.0967759463	 0.125827
H	-1.171143831	 1.7012625571	 0.5233362999	 0.120744
H	-0.759593294	-0.561197026	-0.4060156558	 0.079653
H	 2.2247704042	-1.8592040525	 0.2208428018	 0.105135
H	 2.8394306108	-0.2309588649	 0.6346687146	 0.112422
H	 0.2203073345	-1.4964339468	 1.5625701258	 0.11035
H	 1.1713067948	 1.6332359311	 4.2198777245	 0.200031
44.2766	144.2508	205.2265	228.6579	322.5943	410.39	498.8078	554.6268	620.8423	638.3277	748.4719	775.5648	883.4535	906.6301	994.7323	1019.0166	1061.4434	1093.331	1125.5388	1152.8548	1166.3735	1221.082	1284.1016	1346.5871	1357.1928	1383.4227	1410.7174	1482.0508	1489.0624	1525.9807	2233.9029	3010.4518	3022.6036	3041.2757	3064.4711	3078.9651	3111.8298	3128.397	3503.5987
CC1OCC1C#C	C[C@H]1OC[C@H]1C#C	
InChI=1S/C6H8O/c1-3-6-4-7-5(6)2/h1,5-6H,4H2,2H3	InChI=1S/C6H8O/c1-3-6-4-7-5(6)2/h1,5-6H,4H2,2H3/t5-,6-/m1/s1
