17
gdb 4122	3.65889	1.65619	1.29229	1.1696	73.11	-0.2272	0.0191	0.2463	968.3299	0.141188	-363.797894	-363.789997	-363.789053	-363.829814	30.015	
C	-0.0377745127	 1.5533672442	-0.0081912535	-0.493615
C	 0.0477221325	 0.0546603823	-0.0240929458	 0.264621
C	-0.8370198045	-0.8429117303	 0.8266100397	-0.317559
C	 0.6448403233	-0.966134758	 0.9835165129	-0.09789
C	 1.2155825782	-1.8136588859	-0.1688998813	-0.328023
C	 0.6341848635	-0.7705430195	-1.1184940151	 0.385407
N	 0.7518399742	-0.4999548269	-2.3508261928	-0.270197
O	 1.4790513436	-1.5099671089	-3.0187123879	-0.396085
H	 0.9059652899	 2.0050093749	-0.3302164582	 0.126864
H	-0.8221449431	 1.9079270847	-0.6857063534	 0.133199
H	-0.2718291612	 1.9216633316	 0.9956290926	 0.115837
H	-1.3552025324	-0.3173098575	 1.6232055509	 0.115773
H	-1.4135909887	-1.6474427862	 0.3766968644	 0.114246
H	 1.1551243849	-0.7520037031	 1.9139073259	 0.096763
H	 2.3077198449	-1.8254719331	-0.2253917092	 0.129605
H	 0.8464849117	-2.840360104	-0.2544036771	 0.116752
H	 1.5059421658	-1.1728662841	-3.9201908722	 0.3043
111.2295	171.2553	197.0241	224.0461	290.6394	341.9438	406.6429	429.4157	511.8635	549.348	622.193	739.4597	791.6526	830.7702	873.6859	930.9781	967.6266	974.2674	999.1465	1030.8118	1066.7512	1090.6916	1106.0283	1114.2459	1162.8475	1229.3821	1261.0088	1300.3218	1368.2666	1412.3925	1427.0438	1468.5791	1481.0108	1497.8471	1500.441	1781.7045	3031.7996	3052.7291	3094.9038	3103.2111	3105.5649	3109.0871	3192.0908	3201.431	3821.0015
CC12CC1CC2=NO	C[C@]12C[C@H]1CC2=NO	
InChI=1S/C6H9NO/c1-6-3-4(6)2-5(6)7-8/h4,8H,2-3H2,1H3	InChI=1S/C6H9NO/c1-6-3-4(6)2-5(6)7-8/h4,8H,2-3H2,1H3/t4-,6+/m1/s1
