12
gdb 239	7.49331	2.71579	2.01778	0.9105	50.18	-0.2611	-0.0177	0.2434	587.7789	0.096761	-302.588564	-302.582194	-302.58125	-302.618688	21.828	
C	-0.8940894156	 0.616998071	 0.1563961732	-0.445945
C	 0.421882253	-0.0892395156	 0.3451629184	 0.36052
N	 1.3587989445	 0.2254065807	 1.1494719361	-0.495377
N	 0.6696463115	-1.2272389327	-0.4418171089	-0.290366
C	-0.1118299911	-1.831830056	-1.3942324151	 0.160478
O	-1.2128547172	-1.4852294233	-1.7538239929	-0.305198
H	-1.0137362333	 0.9538274171	-0.8759795982	 0.160558
H	-1.7320568385	-0.0556817483	 0.3535127504	 0.160559
H	-0.9430852438	 1.4740152627	 0.8313998887	 0.116963
H	 1.1062489333	 1.0555972675	 1.6825566942	 0.224105
H	 1.5733915357	-1.6406108224	-0.2529991409	 0.261899
H	 0.4066101114	-2.7152885807	-1.8150361351	 0.091803
78.1586	184.0706	241.8248	266.7739	399.5177	493.0855	569.2601	702.253	788.5773	849.5513	862.8548	1035.2418	1036.1732	1074.3308	1091.2095	1198.8337	1382.8191	1423.4243	1450.0104	1466.5171	1468.4172	1495.9179	1721.6317	1816.6784	2947.6282	3058.1091	3131.2494	3142.8645	3502.6929	3593.4635
CC(=N)NC=O	CC(=N)NC=O	
InChI=1S/C3H6N2O/c1-3(4)5-2-6/h2H,1H3,(H2,4,5,6)	InChI=1S/C3H6N2O/c1-3(4)5-2-6/h2H,1H3,(H2,4,5,6)
