15
gdb 3337	4.12908	3.37786	2.25856	1.7624	61.07	-0.2386	0.0027	0.2413	617.9869	0.127322	-308.51439	-308.508741	-308.507797	-308.54353	22.359	
C	-0.0196467496	 1.4886967599	-0.1061008229	-0.257437
C	 1.3929004322	 2.0798105233	 0.0862642777	-0.244295
C	 2.111139431	 1.4776367568	 1.2732290293	 0.060765
O	 1.3353080871	 1.199295541	 2.4349431753	-0.258916
C	 1.8089221303	 0.0820336479	 1.6410470547	 0.008351
C	 0.8008865197	-0.6576255937	 0.8420918622	-0.040752
C	-0.0386027493	-0.0118699266	 0.0299575839	-0.07549
H	-0.6897315295	 1.9223003117	 0.6464912094	 0.133106
H	-0.4158197642	 1.7903617233	-1.0812395975	 0.10096
H	 2.0061490967	 1.8842458324	-0.8034678472	 0.107436
H	 1.3298061745	 3.1683644695	 0.1930116478	 0.107813
H	 3.110591549	 1.8651221153	 1.4769963376	 0.086872
H	 2.5730285038	-0.5070122256	 2.1440605589	 0.089717
H	 0.7728631243	-1.7386113863	 0.9380896824	 0.088121
H	-0.7802633259	-0.5653025289	-0.5394013616	 0.093748
184.3804	272.5985	352.4084	469.157	510.6443	638.3657	700.8027	722.5029	806.7251	824.9597	870.519	941.2612	942.861	984.7548	992.2788	1043.2586	1057.5251	1084.1772	1138.8249	1189.9019	1212.3362	1266.5043	1279.5756	1342.3531	1356.4564	1388.775	1422.3527	1454.897	1475.0762	1484.8649	1706.3685	3024.0802	3031.8473	3066.6089	3074.7746	3097.1414	3131.7763	3159.6714	3184.3248
C1CC2OC2C=C1	C1C[C@H]2O[C@H]2C=C1	
InChI=1S/C6H8O/c1-2-4-6-5(3-1)7-6/h1,3,5-6H,2,4H2	InChI=1S/C6H8O/c1-2-4-6-5(3-1)7-6/h1,3,5-6H,2,4H2/t5-,6+/m0/s1
