14
gdb 1854	5.68569	2.31316	1.79424	3.4684	62.02	-0.2446	-0.029	0.2155	705.8206	0.114542	-324.606977	-324.60073	-324.599786	-324.636954	23.441	
C	-0.0339610153	 1.5510579515	-0.0286974968	-0.392946
C	 0.0310316588	 0.0256658301	 0.0160467559	 0.066532
O	 0.7795100855	-0.4678679806	-1.109321759	-0.252069
C	 1.8311016194	-1.2397005932	-0.6750341724	 0.391683
N	 2.6719290362	-1.8185563033	-1.4245232007	-0.549126
C	 1.7922750543	-1.2649679762	 0.7937472143	-0.136431
C	 0.7530004447	-0.5423462068	 1.2082046707	-0.09474
H	 0.9694122436	 1.9793010517	 0.0442071628	 0.13256
H	-0.4906174568	 1.8810120893	-0.9653098572	 0.135557
H	-0.6382542068	 1.928350527	 0.802370414	 0.12129
H	-0.9872196209	-0.3837806454	-0.0588010957	 0.104775
H	 2.4630170707	-1.6320652537	-2.4066170249	 0.221494
H	 2.521500072	-1.8037518357	 1.3801385883	 0.130301
H	 0.4378592947	-0.3567853247	 2.2266639408	 0.121121
125.6613	231.2416	239.4351	335.6298	458.7504	497.6126	664.5255	697.1188	765.7437	820.9204	858.0646	880.1854	896.9249	955.1758	977.6371	1026.6652	1087.4443	1095.6767	1125.2262	1135.9482	1263.9444	1340.9955	1353.9677	1384.8305	1404.339	1486.0985	1495.544	1661.918	1758.7894	2999.0788	3043.6098	3118.8065	3129.8344	3222.4821	3260.3292	3478.0894
CC1OC(=N)C=C1	C[C@H]1OC(=C[CH]1)[NH]	
InChI=1S/C5H7NO/c1-4-2-3-5(6)7-4/h2-4,6H,1H3	InChI=1S/C5H7NO/c1-4-2-3-5(6)7-4/h2-4,6H,1H3/t4-/m1/s1
