11
gdb 439	8.19502	3.72327	2.60109	3.246	47.64	-0.2165	-0.0013	0.2152	473.5305	0.08615	-285.335887	-285.330807	-285.329863	-285.364182	18.76	
O	 0.0100533402	-0.0112198945	 0.0030111945	-0.365472
C	-0.0306902226	 1.1964792746	 0.0104896007	 0.409786
C	-1.2601103944	 2.1236298819	 0.0319806515	-0.377175
C	-0.6654081711	 3.5087155506	 0.0314766117	-0.133876
C	 0.6663737517	 3.3948191889	 0.0128893031	-0.013458
N	 1.0612759997	 2.0497117085	 0.0003059583	-0.309858
H	-1.8907538903	 1.9105975776	-0.8389902127	 0.146063
H	-1.8669875567	 1.9011412257	 0.9173635746	 0.146044
H	-1.225276383	 4.4306932428	 0.0439606289	 0.108327
H	 1.4220385871	 4.1675591518	 0.0068354168	 0.128023
H	 2.0094728893	 1.7136196421	-0.0145344374	 0.261597
146.9876	397.476	469.992	485.6443	580.8378	664.8965	704.6906	815.2875	870.124	913.3879	952.1942	972.6095	1080.2301	1138.0054	1147.4366	1196.2284	1266.2172	1372.5583	1410.5296	1434.1612	1668.6524	1839.73	3045.7898	3076.8636	3234.6222	3262.288	3668.1391
O=C1CC=CN1	O=C1CC=CN1	
InChI=1S/C4H5NO/c6-4-2-1-3-5-4/h1,3H,2H2,(H,5,6)	InChI=1S/C4H5NO/c6-4-2-1-3-5-4/h1,3H,2H2,(H,5,6)
