17
gdb 2952	5.3206	1.8679	1.5951	1.7937	59.79	-0.2474	0.076	0.3234	805.2617	0.149763	-346.852204	-346.844984	-346.844039	-346.883995	25.963	
O	 0.0937840004	 1.3113649947	 0.2568468353	-0.424319
C	-0.0093656376	-0.1017970381	 0.1605022698	-0.084254
C	-1.4665056179	-0.4532396429	-0.1247014435	 0.026806
C	-1.6648592529	-1.9879203384	-0.2578859892	-0.263293
C	-2.5036656986	-2.3582207075	 0.9891560692	-0.066779
O	-2.3757904047	-1.266135789	 1.8863336607	-0.243522
C	-2.369268107	-0.1016761011	 1.0734848132	-0.091404
H	 0.9815998753	 1.5304624321	 0.5533578126	 0.287497
H	 0.6310820577	-0.4930679291	-0.6462196728	 0.083463
H	 0.2976075895	-0.5922590582	 1.0981751864	 0.09561
H	-1.7782685348	 0.0833495941	-1.0252287161	 0.080211
H	-2.1759763762	-2.2605176587	-1.1840742156	 0.103978
H	-0.7007525114	-2.5064730931	-0.2546977443	 0.103105
H	-3.5606316579	-2.5040124404	 0.7120189554	 0.086908
H	-2.1589232806	-3.2592739237	 1.5029657908	 0.105753
H	-1.9865892832	 0.7327257076	 1.6642220404	 0.120104
H	-3.3902608501	 0.1409643217	 0.7355636776	 0.080137
49.7458	139.1361	214.3378	254.8271	269.2574	370.3846	458.5013	673.8038	711.0065	824.7948	857.1682	929.86	938.5625	959.2564	979.0171	1029.6027	1070.3171	1100.9219	1126.3781	1150.3973	1196.4004	1230.2884	1246.1801	1269.4244	1273.1723	1304.1816	1310.4769	1350.9472	1373.9147	1398.8383	1453.5462	1497.7058	1510.1269	1519.9542	1524.9736	2964.2117	2965.0924	2971.4712	2998.0242	3053.4787	3071.3579	3089.7232	3106.0864	3116.3501	3835.0268
OCC1CCOC1	OC[C@H]1CCOC1	
InChI=1S/C5H10O2/c6-3-5-1-2-7-4-5/h5-6H,1-4H2	InChI=1S/C5H10O2/c6-3-5-1-2-7-4-5/h5-6H,1-4H2/t5-/m1/s1
