14
gdb 4262	3.96283	1.83786	1.26542	4.3144	67.12	-0.2312	-0.0324	0.1988	908.1352	0.108017	-382.596358	-382.589508	-382.588564	-382.627431	25.523	
C	 0.0733586685	 1.5013878873	 0.0195173136	-0.470047
C	-0.0502674601	 0.013156185	 0.0031612262	 0.392219
C	-1.1824348769	-0.6999944957	-0.1503179656	-0.32787
C	-1.1908570055	-2.1657771469	-0.1510983213	 0.384889
O	-2.2021804421	-2.8392317474	-0.2882105823	-0.377719
C	 0.1500617405	-2.7364362239	 0.0310689018	-0.269772
C	 1.2195646683	-1.9417002597	 0.1760444486	 0.07103
O	 1.1624537434	-0.5884208634	 0.1679274161	-0.228049
H	 0.7402904384	 1.8408082849	-0.7802252198	 0.1491
H	-0.9038253349	 1.9670967037	-0.1133090297	 0.144731
H	 0.5029253941	 1.8412764534	 0.9679585755	 0.149099
H	-2.1269609318	-0.1853856904	-0.278623762	 0.116113
H	 0.26499461	-3.8130961954	 0.0469616896	 0.123294
H	 2.2383016083	-2.2826259215	 0.3144261792	 0.142982
134.7918	169.1519	191.1523	307.6485	417.8857	477.3919	509.5139	537.1416	569.8708	742.6393	755.3074	851.2249	899.369	899.3837	935.8467	969.9846	1020.2303	1067.4439	1077.0282	1183.6214	1229.5377	1279.22	1379.8946	1416.5344	1421.8483	1470.9511	1483.0949	1634.9856	1696.4945	1754.021	3041.2962	3097.3176	3148.4837	3206.8311	3210.6769	3226.3653
CC1=CC(=O)C=CO1	Cc1cc(=O)cco1	
InChI=1S/C6H6O2/c1-5-4-6(7)2-3-8-5/h2-4H,1H3	InChI=1S/C6H6O2/c1-5-4-6(7)2-3-8-5/h2-4H,1H3
