18
gdb 4119	2.65005	1.82754	1.22921	1.0611	72.13	-0.2283	0.0037	0.232	1025.0429	0.152368	-381.06199	-381.053177	-381.052233	-381.095177	32.324	
C	-0.4618198193	 1.094700195	-1.4699183434	-0.37914
C	 0.243919784	-0.1552902232	-0.9622687601	-0.042377
N	 1.7106857115	-0.2187106862	-1.2586976491	-0.342819
C	 2.0477877718	-0.5703803761	 0.1569450712	-0.033654
C	 3.1569772788	 0.2596344031	 0.7853603584	-0.378537
C	 0.6070704004	-0.2555956135	 0.5090809871	 0.392939
N	 0.0484839319	-0.1150797573	 1.6335052714	-0.245494
O	-1.3222384506	 0.1840215387	 1.4935630993	-0.39425
H	 0.0663758671	 1.9925667423	-1.1386822	 0.12121
H	-0.4824782084	 1.0963096918	-2.5647362571	 0.112901
H	-1.4886545604	 1.1312474713	-1.0975646578	 0.13247
H	-0.3087687113	-1.0518010264	-1.2840959892	 0.087108
H	 1.9650268012	-0.9330879927	-1.9318424162	 0.216229
H	 2.2577838781	-1.6419970128	 0.2982435505	 0.084228
H	 2.9583129252	 1.3258057905	 0.6498161157	 0.122952
H	 3.2307485537	 0.048326438	 1.856708362	 0.124824
H	 4.1201453092	 0.0269471513	 0.3195958365	 0.114295
H	-1.6020147629	 0.2810295261	 2.4100539407	 0.307116
74.7877	149.8031	165.4	207.0285	213.3679	269.648	322.4925	365.3268	405.7597	458.0145	539.9349	589.13	655.5592	750.3855	819.8629	874.029	945.8009	982.4388	990.3068	1050.954	1068.7031	1087.2849	1094.0542	1164.1448	1176.2951	1218.3267	1316.9008	1332.6458	1366.9593	1382.6782	1402.544	1404.4466	1410.3314	1484.4734	1486.7771	1491.7022	1494.9846	1800.6678	2976.5895	2980.2477	3038.6288	3041.6312	3109.3877	3113.2883	3125.3183	3132.6769	3532.2727	3817.8836
CC1NC(C)C1=NO	C[C@H]1N[C@@H](C)C1=NO	
InChI=1S/C5H10N2O/c1-3-5(7-8)4(2)6-3/h3-4,6,8H,1-2H3	InChI=1S/C5H10N2O/c1-3-5(7-8)4(2)6-3/h3-4,6,8H,1-2H3/t3-,4+
