16
gdb 2229	4.82261	2.75718	2.16838	1.5596	64.71	-0.2247	0.0093	0.2339	658.4089	0.138352	-288.630839	-288.624648	-288.623704	-288.660359	24.518	
C	 0.0156855299	 1.5100555413	-0.0243801662	-0.463616
C	-0.042211347	 0.0075924149	 0.0836286209	 0.33585
C	-1.3652264957	-0.7119661704	-0.2125299109	-0.32773
C	-1.3105197948	-1.9542131125	 0.6517987801	-0.087062
C	-0.2182489798	-1.9720566585	 1.4216033729	-0.076855
C	 0.6583547993	-0.7983142802	 1.1365061129	-0.099023
N	 1.1980287242	-0.7100014528	-0.2452321774	-0.366701
H	 1.0078798799	 1.8745365469	 0.2522293825	 0.128794
H	-0.185189112	 1.836448046	-1.051657508	 0.117421
H	-0.7269613169	 1.9815527797	 0.6286876427	 0.113053
H	-2.2225675982	-0.0784398933	 0.0534617904	 0.111332
H	-1.4788497973	-0.944430019	-1.280086489	 0.110913
H	-2.0687064469	-2.7281264575	 0.6122730783	 0.097549
H	 0.0415974554	-2.7434576186	 2.1372908777	 0.098618
H	 1.2921869193	-0.3680370055	 1.9056528837	 0.087419
H	 0.9957251007	-1.5799856906	-0.7355707206	 0.220037
192.1802	222.9169	304.378	379.5556	396.5376	518.7423	590.4444	723.2312	748.2167	766.8715	846.4331	900.022	927.9936	952.6961	960.2505	978.1838	1015.9289	1064.652	1095.6944	1112.5451	1136.3891	1182.3951	1193.1558	1267.3816	1299.061	1308.6813	1373.3373	1404.4217	1432.8643	1471.8778	1487.7374	1496.0641	1661.3134	3012.5347	3028.791	3039.7794	3087.5433	3122.39	3157.9585	3187.3994	3212.2519	3468.6303
CC12CC=CC1N2	C[C@]12CC=C[C@H]1N2	
InChI=1S/C6H9N/c1-6-4-2-3-5(6)7-6/h2-3,5,7H,4H2,1H3	InChI=1S/C6H9N/c1-6-4-2-3-5(6)7-6/h2-3,5,7H,4H2,1H3/t5-,6+/m1/s1
