13
gdb 1238	6.97497	1.09311	1.00852	3.0147	61.63	-0.2706	-0.0659	0.2047	1107.6284	0.098897	-344.426799	-344.41858	-344.417636	-344.4602	27.125	
C	-0.1907820833	 1.5786443325	-0.1328420496	-0.391856
C	 0.0514926052	 0.0752497788	 0.0790028766	-0.022611
O	-1.1533461552	-0.6308433008	 0.3390393244	-0.406055
C	 0.7864826753	-0.4988745806	-1.0527013532	 0.143017
C	 1.3395760653	-0.969392767	-2.019036701	-0.042225
C	 2.0384018577	-1.5205064262	-3.1515290812	 0.029052
O	 1.5140960523	-2.1621276774	-4.0326596871	-0.228286
H	 0.755146123	 2.1188735731	-0.2294057183	 0.132282
H	-0.7771060549	 1.7488350416	-1.041162221	 0.12685
H	-0.7436222905	 1.9721236139	 0.7235467681	 0.135887
H	 0.6522541051	-0.0593007132	 0.9866923783	 0.131654
H	-1.6690812923	-0.6467834448	-0.4754168452	 0.290207
H	 3.1265747223	-1.3068392598	-3.1587343308	 0.102083
46.8677	90.1786	120.3298	222.5996	250.0429	273.7189	307.3448	376.0848	490.797	566.7006	644.2414	776.4833	899.2326	1016.0664	1021.2602	1065.2497	1097.5697	1163.3917	1287.4057	1326.3456	1398.7984	1417.6496	1422.8853	1486.8774	1491.3209	1768.6941	2319.9774	2920.6027	3041.4198	3045.1195	3119.9697	3133.5771	3801.8306
CC(O)C#CC=O	C[C@@H](O)C#CC=O	
InChI=1S/C5H6O2/c1-5(7)3-2-4-6/h4-5,7H,1H3	InChI=1S/C5H6O2/c1-5(7)3-2-4-6/h4-5,7H,1H3/t5-/m1/s1
