13
gdb 2956	6.36188	1.73239	1.52296	2.7833	62.62	-0.2632	-0.0572	0.206	798.8311	0.100277	-307.285557	-307.278537	-307.277592	-307.317003	25.002	
O	-0.0189525062	-0.067670556	-0.0581692193	-0.320863
C	-0.0438992295	 1.1481097156	-0.0235449087	 0.25089
C	 1.1820053951	 1.9293398034	 0.0123139236	 0.239175
C	 2.189026429	 2.5883121765	 0.0423401849	-0.40656
C	-1.3073983189	 1.9328032881	-0.0146470533	-0.112705
C	-2.4864392298	 1.3519906165	-0.7866040406	-0.247458
C	-2.5013500916	 1.3106936809	 0.7003054399	-0.247395
H	 3.0892768068	 3.1528753794	 0.0686003646	 0.213501
H	-1.2008049517	 3.0100529578	 0.0164854925	 0.101395
H	-3.127040949	 2.0574939814	-1.3026295051	 0.122029
H	-2.2874217768	 0.4243786584	-1.310679794	 0.14298
H	-2.3123748162	 0.3553274925	 1.1760055392	 0.142959
H	-3.1524865412	 1.9868602455	 1.2417906064	 0.122051
50.7558	144.3502	222.088	261.8925	294.3423	467.6853	593.873	641.1601	699.8781	753.1081	755.8614	810.895	825.941	901.3144	912.3178	1058.0891	1094.9506	1106.9488	1121.8282	1126.349	1210.4726	1218.4758	1398.6398	1454.236	1484.265	1745.9976	2211.6154	3142.9009	3144.4573	3190.1503	3231.001	3245.5458	3495.3466
O=C(C#C)C1CC1	O=C(C#C)C1CC1	
InChI=1S/C6H6O/c1-2-6(7)5-3-4-5/h1,5H,3-4H2	InChI=1S/C6H6O/c1-2-6(7)5-3-4-5/h1,5H,3-4H2
