17
gdb 1690	4.34993	1.72441	1.31556	1.4463	56.67	-0.2598	0.0616	0.3214	909.1521	0.14615	-383.982605	-383.973862	-383.972918	-384.015368	31.438	
C	-0.0044165938	 1.5527932954	 0.0086616346	-0.41078
C	 0.0075583588	 0.0283825279	 0.0548610007	 0.126028
O	 0.731967814	-0.467469846	 1.1790287474	-0.43373
C	-1.408363838	-0.5616390614	 0.0306854857	 0.131928
O	-2.0604002576	-0.0964306691	-1.1376715031	-0.448484
C	-1.3982751417	-2.0874174584	 0.0447909471	-0.103085
O	-2.7609104456	-2.489833997	-0.099033664	-0.437074
H	 1.0183377024	 1.9393258841	 0.0045907174	 0.118368
H	-0.5278198172	 1.9053072041	-0.882633429	 0.144858
H	-0.5242642933	 1.9608654292	 0.8854698859	 0.101938
H	 0.5448081705	-0.3559234216	-0.8207640296	 0.093008
H	 0.3879809766	-0.0258957381	 1.9635847215	 0.27858
H	-1.9476737355	-0.2168826224	 0.9336128721	 0.055455
H	-2.8200283283	-0.6810621926	-1.2566700896	 0.291297
H	-0.7901511242	-2.4515454695	-0.7967406626	 0.092903
H	-0.959837138	-2.4573488948	 0.9788491805	 0.104706
H	-2.7839929791	-3.4288740197	-0.3011002449	 0.294085
82.5481	121.647	182.9158	238.2276	252.8976	283.2295	302.7933	336.2413	401.2467	447.3525	486.8205	497.1843	570.3874	857.776	905.6624	959.6771	1014.2087	1068.0799	1082.7543	1108.7886	1128.1683	1152.8054	1226.2521	1244.4111	1261.1398	1319.4514	1349.8009	1368.2551	1397.5923	1412.3986	1434.4403	1458.5864	1490.3899	1496.7832	1512.2979	2922.0837	2994.6002	3023.4478	3044.3293	3062.1131	3101.2974	3138.4369	3770.5179	3797.7545	3844.513
CC(O)C(O)CO	C[C@@H](O)[C@@H](O)CO	
InChI=1S/C4H10O3/c1-3(6)4(7)2-5/h3-7H,2H2,1H3	InChI=1S/C4H10O3/c1-3(6)4(7)2-5/h3-7H,2H2,1H3/t3-,4+/m1/s1
