11
gdb 3844	6.05382	2.81934	1.92353	0.6776	56.73	-0.2393	-0.0749	0.1644	604.4605	0.081083	-335.591582	-335.586275	-335.585331	-335.620621	19.86	
N	-0.0654207608	 1.3777674686	 0.0107600789	-0.545587
C	-0.0338025568	 0.0996894313	 0.0035907192	 0.42063
N	 1.1252268318	-0.6998558212	-0.0075834604	-0.296426
N	 1.2157357425	-2.0453859238	-0.0154762062	-0.027145
N	 0.1533391235	-2.7369280859	-0.0130198847	-0.212379
C	-1.0746162686	-2.0780752169	-0.0022070613	 0.04071
C	-1.2156698374	-0.7382579183	 0.0059479668	-0.134461
H	 0.8700569891	 1.7876581355	 0.0075043741	 0.206132
H	 2.0333408916	-0.2555164376	-0.0104945593	 0.273005
H	-1.9259957525	-2.7487167796	-0.000878344	 0.137468
H	-2.1812963725	-0.248487592	 0.0142961669	 0.138053
146.9869	340.9366	417.6023	505.057	545.1396	663.8066	671.7348	759.023	806.7406	836.5965	879.0731	992.3483	1017.7927	1044.7926	1077.3592	1142.7	1209.6438	1295.4671	1399.719	1437.802	1545.1077	1633.4028	1732.5888	3202.8943	3226.1505	3461.1184	3599.8752
N=C1NN=NC=C1	[NH]c1[nH]nncc1	
InChI=1S/C3H4N4/c4-3-1-2-5-7-6-3/h1-2H,(H2,4,5,6)	InChI=1S/C3H9N4/c4-3-1-2-5-7-6-3/h3-7H,1-2H2
