15
gdb 1267	6.77332	1.0256	0.94819	1.5467	62.29	-0.2595	0.0272	0.2867	1202.0457	0.122717	-345.613895	-345.605137	-345.604193	-345.648135	29.684	
C	 0.070772082	 1.4741176885	-0.1828333332	-0.385433
C	 0.0182158624	-0.0456342371	 0.031408746	-0.020707
O	 0.7511921283	-0.4385199875	 1.1901232279	-0.412955
C	-1.3640281705	-0.5350071761	 0.0661199489	 0.061998
C	-2.5087867866	-0.9092756399	 0.1232861189	 0.024112
C	-3.8720762108	-1.4336222261	 0.1970357949	-0.189238
O	-4.0179043583	-2.7225725028	-0.3812014589	-0.401044
H	 1.1133969071	 1.8017246411	-0.1986493823	 0.127057
H	-0.4079208425	 1.7520388183	-1.126154789	 0.127752
H	-0.4498820272	 1.9931886356	 0.6285212015	 0.116872
H	 0.5424643531	-0.5348299776	-0.7985320706	 0.121344
H	 0.2571112026	-0.1337207367	 1.9594343831	 0.281599
H	-4.2052325499	-1.4243071056	 1.2476289452	 0.117966
H	-4.5573384258	-0.7804376861	-0.3547774777	 0.141567
H	-3.3340990639	-3.286224828	-0.0043390147	 0.289108
25.929	97.4572	122.3075	198.8256	249.3976	266.2471	306.4359	345.573	388.9666	511.2219	545.1895	585.5919	729.5008	892.811	983.2936	1008.1388	1045.0102	1070.4769	1097.6305	1169.8546	1216.7795	1282.8508	1335.2459	1356.7957	1398.7221	1414.832	1421.5486	1487.8835	1490.9185	1491.9008	2351.4684	2972.7359	3037.7655	3041.7364	3061.6614	3114.9168	3128.7455	3803.4993	3816.4648
CC(O)C#CCO	C[C@@H](O)C#CCO	
InChI=1S/C5H8O2/c1-5(7)3-2-4-6/h5-7H,4H2,1H3	InChI=1S/C5H8O2/c1-5(7)3-2-4-6/h5-7H,4H2,1H3/t5-/m1/s1
