13
gdb 2518	3.19928	2.30547	1.42303	1.4184	57.62	-0.25	-0.0446	0.2053	821.0943	0.09767	-344.402806	-344.394688	-344.393744	-344.435829	27.053	
C	-0.1591270394	 1.364404791	 0.2358171017	-0.240738
O	-0.3442585156	-0.0132513187	-0.0478573629	-0.242354
C	 0.5494596802	-0.5022556244	-1.0323731831	-0.116306
C	 1.9490020332	-0.688877497	-0.4069845768	 0.144208
O	 2.9609016919	-0.235829456	-0.8654320873	-0.228898
C	 0.0851901238	-1.7986931369	-1.5087424132	 0.276076
C	-0.2288482454	-2.8940864715	-1.8890900803	-0.399499
H	 0.8440918827	 1.580296097	 0.6293968622	 0.123124
H	-0.3207285519	 1.9819147998	-0.6595551196	 0.119458
H	-0.9005536709	 1.6282383856	 0.9921188262	 0.139828
H	 0.6500840775	 0.2032338038	-1.8713817551	 0.114552
H	 1.9192480512	-1.273760598	 0.5378054287	 0.101417
H	-0.5268265773	-3.8531522447	-2.2357871706	 0.209132
52.9228	93.7017	152.0473	178.4983	200.4193	323.3497	372.5273	463.1869	488.9012	550.7866	638.6467	680.726	934.2673	981.419	1035.6181	1061.374	1130.1149	1181.1604	1217.0694	1262.2578	1349.8064	1396.4217	1477.9811	1488.9273	1508.2231	1840.1368	2239.7632	2906.4402	2990.0317	2997.0416	3044.5751	3132.0002	3501.7256
COC(C=O)C#C	CO[C@@H](C=O)C#C	
InChI=1S/C5H6O2/c1-3-5(4-6)7-2/h1,4-5H,2H3	InChI=1S/C5H6O2/c1-3-5(4-6)7-2/h1,4-5H,2H3/t5-/m1/s1
