15
gdb 4976	3.31956	2.32063	1.37928	3.8234	70.83	-0.223	-0.0262	0.1969	858.7219	0.12117	-358.904524	-358.897435	-358.896491	-358.935483	26.961	
C	-0.0115449241	 1.5064198515	-0.0235960922	-0.503671
C	-0.0018369451	 0.003547462	 0.0021305306	 0.295928
N	-0.0599538564	-0.6447238536	-1.1624833036	-0.294767
C	-0.0401331902	-1.9774418345	-1.1311606603	 0.04489
N	 0.0285862649	-2.7420181049	-0.042819222	-0.248563
C	 0.0811263776	-2.0955286971	 1.1198082796	-0.038575
C	 0.0727012534	-0.7023394506	 1.2194477323	 0.212524
N	 0.1962746293	-0.0495762173	 2.4426724287	-0.59493
H	 0.8636449785	 1.9163582584	 0.4946635618	 0.139015
H	-0.0117323385	 1.8526570227	-1.0573889508	 0.149579
H	-0.9016638616	 1.9130936051	 0.4759280929	 0.125418
H	-0.0853300221	-2.488390588	-2.0890312281	 0.110161
H	 0.1355482999	-2.7056166733	 2.0216450521	 0.098623
H	-0.0240943145	-0.6180253332	 3.2483618321	 0.251405
H	-0.2452531012	 0.8564795628	 2.4976076069	 0.252962
152.0009	170.7504	273.8715	292.8719	317.1552	430.6703	459.1923	535.8924	564.613	614.455	637.0034	763.1701	777.4218	891.9968	927.7097	974.3597	987.0112	1057.7188	1091.1921	1178.8411	1240.2685	1272.4125	1292.4615	1352.8886	1402.763	1449.5618	1474.7927	1484.2494	1504.4949	1595.1671	1616.3186	1657.9451	3014.6298	3067.776	3124.39	3149.6432	3170.7494	3560.2634	3658.627
CC1=NC=NC=C1N	Cc1ncncc1N	
InChI=1S/C5H7N3/c1-4-5(6)2-7-3-8-4/h2-3H,6H2,1H3	InChI=1S/C5H7N3/c1-4-5(6)2-7-3-8-4/h2-3H,6H2,1H3
