16
gdb 620	7.38907	2.19903	1.96031	1.7551	57.13	-0.2567	0.0971	0.3538	697.2201	0.141773	-271.622821	-271.615682	-271.614738	-271.653657	25.244	
C	-0.2716216756	 1.5004534651	 0.2210875626	-0.372408
C	 0.278041515	 0.1300300747	-0.1953037533	-0.211368
C	 1.0261336383	-0.5370276594	 0.9339232085	 0.085161
O	 0.2484076832	-1.0625586298	 2.0190888653	-0.265609
C	 1.0208091733	-1.9792024887	 1.2341645813	 0.075815
C	 0.273776215	-3.0291145152	 0.4517227482	-0.417716
H	 0.5356317118	 2.1754928545	 0.5257383034	 0.11458
H	-0.8129249523	 1.9760958135	-0.6019830777	 0.112161
H	-0.9573215826	 1.3960094163	 1.0671073942	 0.13487
H	-0.5437488173	-0.5089003341	-0.5311139326	 0.103333
H	 0.9629311029	 0.2436479786	-1.0459873255	 0.098871
H	 1.9034118908	 0.0239077244	 1.2696762686	 0.080945
H	 1.8977434939	-2.3629752967	 1.7617353599	 0.083564
H	-0.5973398468	-2.6157209842	-0.0597486914	 0.12819
H	 0.9319941958	-3.4902245938	-0.292908247	 0.120375
H	-0.0748759653	-3.8202447653	 1.1239505454	 0.129238
82.0125	151.3161	202.5007	222.7188	283.9989	392.8533	463.9254	532.879	747.0927	783.1696	822.5227	920.3086	959.5863	1002.0143	1037.4882	1061.1807	1126.2775	1145.7607	1180.0335	1194.2338	1293.3263	1305.6888	1343.3585	1402.9901	1408.8401	1421.9564	1469.6155	1476.3062	1492.2419	1499.3861	1506.2765	1516.6006	3027.1493	3036.4501	3038.9301	3058.2529	3076.3111	3085.4998	3098.1372	3107.4793	3117.0187	3137.2895
CCC1OC1C	CC[C@H]1O[C@H]1C	
InChI=1S/C5H10O/c1-3-5-4(2)6-5/h4-5H,3H2,1-2H3	InChI=1S/C5H10O/c1-3-5-4(2)6-5/h4-5H,3H2,1-2H3/t4-,5+/m0/s1
