15
gdb 4758	6.75293	1.31297	1.11151	4.0331	66.85	-0.1791	0.0483	0.2274	1040.1251	0.119306	-395.989996	-395.981925	-395.980981	-396.022567	29.157	
C	-0.0129778735	 1.4042180923	-0.002763345	-0.318626
N	 0.0124101737	-0.0476599163	 0.040454424	-0.383004
C	-1.0913681273	-0.6578117172	 0.0682609172	 0.514823
N	-1.2626582262	-2.0399810909	 0.1002576244	-0.401707
C	-2.6264721898	-2.3254533213	-0.0053928219	 0.292026
N	-3.0414999777	-3.6482432976	-0.1508363144	-0.603817
C	-3.2781918514	-1.1548637243	 0.0146403236	-0.11985
O	-2.3528021378	-0.1071371709	 0.0687719159	-0.22746
H	 0.9550735309	 1.7666861815	-0.3602724195	 0.113018
H	-0.7966613152	 1.8052576671	-0.6603604135	 0.111404
H	-0.1754543032	 1.8344837278	 0.9957770336	 0.112912
H	-0.5415073778	-2.6421462702	-0.2616685041	 0.269466
H	-2.7115171643	-4.2430293766	 0.6030870176	 0.253779
H	-4.0484863023	-3.7226123688	-0.2171387481	 0.255231
H	-4.3189107282	-0.8878201446	 0.0291735303	 0.131805
60.0832	121.5631	198.2407	245.1214	264.2745	329.603	355.	424.1165	526.8997	597.8308	631.3569	674.0485	727.8576	746.2177	796.8453	902.3518	1010.6611	1077.0707	1083.8652	1125.9733	1146.0467	1156.1791	1219.1245	1289.5066	1356.825	1446.906	1461.765	1493.1049	1501.9202	1637.7745	1743.269	1812.1535	2991.5173	3037.9399	3090.0981	3306.1728	3505.3255	3614.8929	3659.8335
CN=C1NC(N)=CO1	CN=c1[nH]c(N)co1	
InChI=1S/C4H7N3O/c1-6-4-7-3(5)2-8-4/h2H,5H2,1H3,(H,6,7)	InChI=1S/C4H7N3O/c1-6-4-7-3(5)2-8-4/h2H,5H2,1H3,(H,6,7)
