14
gdb 254	8.08563	2.19066	1.84258	4.0824	54.43	-0.2371	0.0217	0.2588	671.7683	0.119064	-266.609146	-266.602164	-266.60122	-266.639636	24.109	
C	-0.0289980368	 1.4584010164	 0.0147743297	-0.317524
N	 0.0114837512	 0.0037052842	 0.0269856689	-0.053175
C	 0.8074602146	-0.5110386521	 1.1340455152	-0.330803
C	-1.3335090286	-0.5512292055	 0.0055105946	-0.271479
C	-1.3320391858	-2.0013337995	-0.2248790535	 0.275753
N	-1.3450459785	-3.1436706622	-0.3948419183	-0.307387
H	 0.9919363383	 1.8468135818	-0.0340947704	 0.130115
H	-0.5690262701	 1.8104768499	-0.8697672231	 0.124347
H	-0.514998229	 1.8898376121	 0.9107524475	 0.098206
H	 0.4006609184	-0.2303228174	 2.1241435399	 0.096966
H	 0.8594621	-1.6016060108	 1.0807876696	 0.14874
H	 1.824717701	-0.1171792986	 1.0597768465	 0.128166
H	-1.9013535553	-0.3579537714	 0.9379949743	 0.125631
H	-1.8974052294	-0.0820437368	-0.808639041	 0.152445
94.4317	164.3506	250.8479	258.5389	342.342	375.0262	397.9624	410.101	563.7701	851.6458	941.6468	999.4016	1063.857	1070.7796	1125.3211	1177.3007	1208.7706	1297.5731	1306.1526	1391.6396	1447.4251	1468.3727	1481.4204	1484.0454	1498.749	1500.2976	1512.2522	2366.6327	2905.1984	2926.5162	2935.8238	3062.415	3066.8274	3078.2484	3113.5957	3123.717
CN(C)CC#N	CN(C)CC#N	
InChI=1S/C4H8N2/c1-6(2)4-3-5/h4H2,1-2H3	InChI=1S/C4H8N2/c1-6(2)4-3-5/h4H2,1-2H3
