5
gdb 177	11.4029	10.6093	5.4959	0.6581	25.66	-0.3671	-0.1073	0.2598	226.0123	0.020349	-294.081616	-294.078226	-294.077281	-294.10766	10.401	
O	-0.0791747539	 1.253174839	 0.0095115243	-0.132457
N	 1.2113477831	 1.7130597251	-0.0002381434	 0.103072
N	 1.9737032474	 0.7238608721	-0.012951144	-0.036843
N	 1.1941825062	-0.4418473051	-0.0117691278	-0.036844
N	-0.0112064429	-0.115164371	 0.001574191	 0.103072
598.552	694.276	737.3304	787.5243	1000.3962	1071.6215	1092.9153	1429.8461	1519.8383
O1N=NN=N1	o1nnnn1	
InChI=1S/N4O/c1-2-4-5-3-1	InChI=1S/N4O/c1-2-4-5-3-1
