15
gdb 2657	7.90373	0.96804	0.92494	0.7323	70.95	-0.2476	0.0425	0.2901	1259.2654	0.122515	-271.324234	-271.315706	-271.314762	-271.358919	29.128	
C	-0.5368797665	 1.331567766	-0.2469497832	-0.364843
C	 0.4522224646	 0.2310944013	 0.178280165	-0.312649
C	 1.1413790447	-0.3871118981	-0.949768216	 0.084359
C	 1.6949317973	-0.8845609586	-1.8952555523	 0.064723
C	 2.3781051233	-1.4928653863	-3.0389253112	-0.489467
C	 1.7528745045	-2.7318225051	-3.5075722035	 0.319677
C	 1.2497019942	-3.7483235571	-3.9011746196	-0.448211
H	-0.0199747268	 2.1337264577	-0.7806965782	 0.12707
H	-1.3059929956	 0.9266839557	-0.9101263164	 0.130023
H	-1.0287795479	 1.7621281477	 0.6303565098	 0.114107
H	 1.1927462489	 0.6508727249	 0.8712145363	 0.128314
H	-0.0818632091	-0.5436825612	 0.7431314753	 0.131328
H	 2.4178762783	-0.7743388191	-3.8695652449	 0.158332
H	 3.4260019978	-1.6959401792	-2.777197497	 0.158558
H	 0.8006669624	-4.6468720485	-4.2449191242	 0.19868
10.9808	86.894	125.5465	200.3348	277.6222	288.76	323.8805	381.7082	488.9268	548.5851	620.2175	645.6079	749.0899	785.1766	931.1062	934.7014	974.1166	1079.3587	1104.6452	1163.2605	1231.1544	1286.3486	1335.0042	1351.7156	1408.8125	1453.6958	1475.0216	1494.8102	1505.6904	2246.3955	2375.9889	3005.0781	3020.0266	3028.273	3043.9024	3047.2924	3117.1039	3123.5295	3507.5822
CCC#CCC#C	CCC#CCC#C	
InChI=1S/C7H8/c1-3-5-7-6-4-2/h1H,4-5H2,2H3	InChI=1S/C7H8/c1-3-5-7-6-4-2/h1H,4-5H2,2H3
