17
gdb 1859	4.66538	2.24818	1.8119	1.3262	66.28	-0.2305	0.0176	0.248	766.1778	0.147908	-309.732713	-309.725486	-309.724542	-309.763832	26.947	
C	 0.1958971917	 1.5377211467	-0.1197839315	-0.387937
C	-0.0049484617	 0.0328151365	 0.0566683492	 0.097464
O	 0.556090224	-0.6669171908	-1.0588979818	-0.28795
C	 1.4180487273	-1.7229574705	-0.6222234045	 0.097473
C	 2.7619991931	-1.6285218146	-1.3440999714	-0.387945
C	 1.486066978	-1.5520579866	 0.8735733416	-0.096412
C	 0.6859605719	-0.5648334705	 1.2552958944	-0.096408
H	 1.261812981	 1.7831352009	-0.1296356581	 0.118011
H	-0.2460942911	 1.8665282694	-1.0645635908	 0.125474
H	-0.2853313969	 2.0893480518	 0.6949268372	 0.10889
H	-1.0897612641	-0.17132231	 0.0976877567	 0.076528
H	 0.953244246	-2.6920935388	-0.8769929284	 0.076527
H	 3.269760853	-0.694324327	-1.0872845123	 0.118005
H	 3.4082776845	-2.4685143845	-1.0677650414	 0.10889
H	 2.6085390949	-1.65548986	-2.426599178	 0.125483
H	 2.1055822207	-2.1737895413	 1.5081037582	 0.101953
H	 0.5171925679	-0.2139039907	 2.265911561	 0.101952
73.659	205.5491	227.7811	239.5903	300.8273	372.245	439.3348	564.1979	682.1421	766.5362	773.4984	828.6695	864.0441	893.2336	958.1747	958.7368	1037.2329	1066.6363	1093.6089	1118.7539	1130.1614	1138.8003	1146.2332	1300.2082	1350.3209	1352.0372	1375.214	1378.2694	1398.5679	1399.7547	1483.624	1486.7218	1493.5716	1496.5973	1691.7646	2936.0028	2940.0755	3036.2934	3037.034	3109.6715	3110.5753	3120.4504	3121.5456	3200.5582	3225.7282
CC1OC(C)C=C1	C[C@H]1O[C@@H](C)C=C1	
InChI=1S/C6H10O/c1-5-3-4-6(2)7-5/h3-6H,1-2H3	InChI=1S/C6H10O/c1-5-3-4-6(2)7-5/h3-6H,1-2H3/t5-,6+
