12
gdb 698	8.63601	4.17475	4.17436	1.5668	49.54	-0.2251	0.0625	0.2876	396.1319	0.09889	-265.283843	-265.279706	-265.278762	-265.310999	16.494	
N	-0.1118670026	 1.5762639604	-0.0450437	-0.345847
C	 1.3631569902	 1.3104780804	 0.0087737073	-0.033508
C	 1.2629369266	 0.0335139735	 0.9192257863	-0.033508
N	 1.971983659	-0.8867624049	-0.0292346296	-0.345847
C	 1.2309381737	 0.0622460978	-0.9228227267	-0.002368
C	-0.0096006568	 0.0814482552	 0.0127002435	-0.002368
H	-0.4361064968	 1.9394933469	 0.8554650678	 0.208393
H	 2.1212624991	 2.0965713197	-0.0010615943	 0.081151
H	 1.3280792224	-0.0491510874	 2.0062796437	 0.081151
H	 2.9727778155	-0.6719101305	-0.0444694301	 0.208393
H	 1.2514093358	 0.0217402246	-2.0114382701	 0.092179
H	-0.8659141061	-0.5922319155	 0.0076201525	 0.092179
482.1009	483.1799	741.9168	774.2267	821.0186	822.4257	857.6425	893.1838	894.7104	939.9268	970.659	1041.5579	1093.0187	1100.0411	1105.6832	1148.7884	1160.672	1163.5337	1211.7405	1216.345	1285.622	1300.4786	1301.983	1354.8484	3089.0671	3100.2065	3121.766	3134.6488	3398.2609	3398.5915
N1C2C3NC2C13	N1[C@H]2[C@@H]3N[C@H]2[C@H]13	
InChI=1S/C4H6N2/c5-1-2-4(5)3(1)6-2/h1-6H	InChI=1S/C4H6N2/c5-1-2-4(5)3(1)6-2/h1-6H/t1-,2-,3+,4+
