15
gdb 2160	3.43606	3.13588	1.88416	1.7119	56.66	-0.2422	-0.0251	0.2171	692.8027	0.12495	-345.680831	-345.67403	-345.673086	-345.711706	24.719	
C	 0.0813942481	 1.4584699566	-0.1897221314	-0.398725
C	-0.0909576125	-0.0344096333	 0.1048428601	 0.027625
O	 0.2726276619	-0.8656922882	-0.9902092371	-0.263934
C	 1.6065695063	-1.343899158	-0.7914437074	-0.092183
C	 1.7480106037	-1.544484381	 0.7185296587	-0.333817
C	 0.7985099053	-0.4828894457	 1.2742724274	 0.37426
O	 0.7522239226	-0.0539713573	 2.3964017654	-0.307925
H	 1.1174472656	 1.6938274642	-0.4530916056	 0.11972
H	-0.5608720356	 1.7531975641	-1.0231918329	 0.129195
H	-0.1883565334	 2.0409006164	 0.6957356423	 0.139145
H	-1.1397437732	-0.2420317064	 0.3496180696	 0.110481
H	 1.7142290064	-2.2602555003	-1.3755607107	 0.11885
H	 2.3430145374	-0.6137564904	-1.1606084557	 0.10109
H	 1.3730885793	-2.5282350491	 1.0252027407	 0.141671
H	 2.7572082182	-1.4253559817	 1.1165644265	 0.134546
80.4547	181.4856	222.1183	233.0132	400.1835	465.6111	529.4218	642.078	654.2091	766.3159	833.4014	872.3588	950.1128	978.2223	998.7222	1075.212	1105.1787	1128.4703	1163.4704	1207.9836	1238.478	1276.3935	1306.3517	1345.8981	1389.5084	1396.5928	1447.6253	1487.031	1494.399	1524.5653	1856.4015	2987.8513	3037.4562	3043.5767	3049.5511	3103.041	3117.6635	3125.3962	3130.6968
CC1OCCC1=O	C[C@H]1OCCC1=O	
InChI=1S/C5H8O2/c1-4-5(6)2-3-7-4/h4H,2-3H2,1H3	InChI=1S/C5H8O2/c1-4-5(6)2-3-7-4/h4H,2-3H2,1H3/t4-/m1/s1
