11
gdb 907	5.94332	2.9643	1.97783	6.8848	55.72	-0.2328	-0.0391	0.1937	593.0185	0.081923	-335.643923	-335.638467	-335.637523	-335.67368	19.719	
N	-0.0759152045	 1.308303362	-0.1401125498	-0.498881
C	-0.0122014829	 0.0492043265	 0.0362531423	 0.361893
N	 1.2322225873	-0.639687224	 0.1332020904	-0.284407
C	 1.2067515855	-1.9031412917	 0.3097075581	 0.096317
N	 0.0446896669	-2.6341844514	 0.4111739814	-0.299854
C	-1.1457376847	-1.9413737016	 0.3138581391	 0.093687
N	-1.221065729	-0.6816962104	 0.1378249014	-0.241088
H	 0.8776410083	 1.6706258795	-0.1903896556	 0.220699
H	 2.1311628556	-2.4731844016	 0.3898963479	 0.137614
H	 0.0622457726	-3.6309581185	 0.55056651	 0.274797
H	-2.047358635	-2.5458711088	 0.3979409648	 0.139222
52.6064	380.0037	440.1345	477.611	538.1214	565.8529	659.5878	804.0665	821.9909	911.7342	962.0263	968.4824	997.4594	1004.0881	1061.6878	1170.9957	1303.5234	1412.0115	1428.1163	1473.8855	1648.0609	1705.6095	1747.1662	3145.476	3149.8129	3477.8938	3652.0263
N=C1N=CNC=N1	[NH]C1=NCNC=N1	
InChI=1S/C3H4N4/c4-3-6-1-5-2-7-3/h1-2H,(H2,4,5,6,7)	InChI=1S/C3H5N4/c4-3-6-1-5-2-7-3/h1,4H,2H2,(H,5,6,7)
