13
gdb 853	7.17716	2.00712	1.57227	1.1622	55.95	-0.1633	0.0709	0.2342	733.6699	0.102791	-340.657508	-340.65047	-340.649526	-340.687921	26.127	
N	 0.0303620457	 1.4298663077	-0.1471036321	-0.604939
C	 0.0149162185	 0.0227033047	-0.050056497	 0.276946
C	-1.0830967269	-0.7962102442	 0.0472038849	-0.185089
N	-0.6213548269	-2.1132486672	 0.016456319	-0.295724
C	 0.7313438344	-2.109466249	-0.082365315	 0.401599
O	 1.3676102467	-3.3093236174	-0.1135648568	-0.437576
C	 1.1797491499	-0.8097454252	-0.130483504	-0.368801
H	 0.7883124491	 1.8362880954	 0.388476324	 0.235941
H	-0.8385448252	 1.8396621493	 0.1731662856	 0.234125
H	-2.1343561581	-0.5754361695	 0.1213596138	 0.099341
H	-1.1819258604	-2.9436506442	 0.078358225	 0.26154
H	 2.3097644027	-3.1460886513	-0.2146949789	 0.30571
H	 2.2039254605	-0.4840229391	-0.2301646385	 0.076926
184.2305	198.0527	220.7972	250.053	309.8994	408.4798	463.1585	573.7768	596.888	637.0108	668.6162	712.6837	745.907	804.7102	986.8701	1016.2385	1099.1179	1110.7458	1181.7765	1203.2452	1302.1776	1351.7616	1449.3601	1557.9395	1589.8868	1641.7111	1660.8222	3241.4855	3273.4265	3519.8653	3607.5129	3699.6276	3852.2488
NC1=CNC(O)=C1	Nc1c[nH]c(O)c1	
InChI=1S/C4H6N2O/c5-3-1-4(7)6-2-3/h1-2,6-7H,5H2	InChI=1S/C4H6N2O/c5-3-1-4(7)6-2-3/h1-2,6-7H,5H2
