12
gdb 1017	9.0876	1.91529	1.58189	2.834	65.16	-0.2054	0.0167	0.2222	727.2033	0.091471	-286.24688	-286.240878	-286.239934	-286.276357	23.043	
C	 0.0189339512	-1.2101005038	-0.0040578955	-0.460658
C	-0.0024267227	-0.0053082722	 0.0028964781	 0.246703
C	-0.0095556277	 1.4090422378	 0.0108288015	 0.162124
C	-1.1300745018	 2.2237158157	 0.0301333088	-0.194367
N	-0.7045218576	 3.5207299656	 0.0317083938	-0.227937
C	 0.6692556156	 3.5673265356	 0.0138350809	-0.066515
C	 1.1317505067	 2.2772400871	 0.000584207	-0.263837
H	 0.0337387255	-2.2711433573	-0.0101282935	 0.180578
H	-2.1767609915	 1.9688981251	 0.0425262289	 0.12834
H	-1.3095243218	 4.3228573056	 0.0441116467	 0.267318
H	 1.1933232249	 4.5091021034	 0.0121564261	 0.124519
H	 2.1630085193	 1.9631239772	-0.0147639729	 0.103732
166.7224	171.9082	460.4288	498.6162	529.0214	530.139	572.0115	633.9111	644.2254	664.5282	695.0471	781.8138	840.2055	903.5787	967.4009	1078.8958	1099.2542	1162.2815	1255.8032	1305.552	1381.795	1460.5878	1525.059	1586.844	2230.5512	3258.2994	3274.0935	3278.5005	3507.4233	3686.789
C#CC1=CNC=C1	C#Cc1c[nH]cc1	
InChI=1S/C6H5N/c1-2-6-3-4-7-5-6/h1,3-5,7H	InChI=1S/C6H5N/c1-2-6-3-4-7-5-6/h1,3-5,7H
