8
gdb 3932	9.28041	2.25194	1.8122	2.702	42.91	-0.3256	-0.1158	0.2099	598.0259	0.043303	-387.558484	-387.553265	-387.552321	-387.58781	17.092	
O	-0.1015026945	-0.0442921109	 0.0003977107	-0.200716
C	-0.0522259136	 1.1418786728	 0.0078354834	 0.219518
N	 1.1854553705	 1.8719970983	-0.0004089472	 0.086039
N	 2.4180224057	 1.3519346067	-0.0170270573	-0.0669
N	 3.2070529809	 2.3634014582	-0.0186088468	-0.053763
N	 2.4644034722	 3.5176765792	-0.0028808118	-0.062292
N	 1.2203759645	 3.2102009313	 0.0082069426	-0.084264
H	-0.8943598457	 1.8484149645	 0.0214642264	 0.162378
132.6274	229.7292	244.8455	507.1457	709.1385	755.8463	786.481	876.5763	1026.7101	1080.6976	1103.538	1152.7126	1258.761	1374.9963	1390.597	1444.7156	1874.9536	3057.9066
O=CN1N=NN=N1	O=Cn1nnnn1	
InChI=1S/CHN5O/c7-1-6-4-2-3-5-6/h1H	InChI=1S/CHN5O/c7-1-6-4-2-3-5-6/h1H
