14
gdb 4596	5.65836	1.56738	1.23677	4.0583	68.86	-0.2238	-0.0582	0.1656	928.6565	0.108982	-378.785927	-378.779092	-378.778148	-378.816951	25.533	
C	-0.0002387194	 1.5369293794	 0.0294812726	-0.467378
C	-0.0365244679	 0.0360939638	 0.0163248324	 0.295892
C	-1.1812099163	-0.6797706005	-0.154007277	-0.056325
N	-1.1400358029	-2.0454698232	-0.1549961449	-0.333484
C	 0.0302605346	-2.7899322031	 0.0114749996	 0.384197
O	 0.0308740477	-4.0079971122	 0.0054241222	-0.387403
C	 1.1946471062	-1.9144679972	 0.1853290812	-0.104366
N	 1.1639598453	-0.6187176201	 0.1876515977	-0.265685
H	 0.6536376484	 1.9157802443	-0.7631335285	 0.140289
H	-0.9967221164	 1.9634191119	-0.1128589393	 0.117962
H	 0.4009941078	 1.9066180341	 0.9790316492	 0.1403
H	-2.1544153312	-0.2249370888	-0.293216728	 0.134404
H	-1.9845462126	-2.5870653369	-0.2806047578	 0.267774
H	 2.1494601868	-2.4175782315	 0.3219967406	 0.133823
114.211	142.0296	303.5025	309.7718	405.5927	441.1308	502.0618	502.0815	629.6113	716.3372	775.9046	777.9801	834.7142	870.099	948.9338	975.6532	1021.7281	1067.8318	1168.8377	1217.2811	1291.3654	1329.1299	1397.077	1419.1704	1460.9552	1472.8058	1495.6955	1569.6736	1672.6079	1787.7747	3036.3397	3093.5742	3119.1971	3160.1335	3205.4432	3601.4611
CC1=CNC(=O)C=N1	Cc1c[nH]c(=O)cn1	
InChI=1S/C5H6N2O/c1-4-2-7-5(8)3-6-4/h2-3H,1H3,(H,7,8)	InChI=1S/C5H6N2O/c1-4-2-7-5(8)3-6-4/h2-3H,1H3,(H,7,8)
