14
gdb 287	4.86781	3.19439	2.14328	2.9304	49.94	-0.263	-0.0258	0.2371	606.3478	0.117268	-307.594137	-307.586914	-307.58597	-307.625022	25.252	
C	 0.1068924293	 1.4669781586	-0.2775523917	-0.401859
C	 0.0733258151	-0.0272096741	 0.075639127	 0.062269
O	 0.7015298341	-0.2514558406	 1.3079372301	-0.4373
C	-1.3544957401	-0.5807707178	 0.1142712538	 0.370227
C	-2.2160881311	-0.4572171969	-1.1209974691	-0.480273
O	-1.7524062754	-1.1061977036	 1.1332201149	-0.319435
H	 1.1407576864	 1.8172652945	-0.2314579865	 0.139543
H	-0.27682643	 1.6563532294	-1.2844355629	 0.113424
H	-0.4799355144	 2.0438748345	 0.4437761906	 0.127832
H	 0.5978132894	-0.5830489136	-0.723284602	 0.087431
H	 0.0420629103	-0.7205533615	 1.8454669765	 0.291144
H	-2.5922230335	 0.5690875622	-1.202795555	 0.155969
H	-1.6438186679	-0.664570151	-2.0301043946	 0.140527
H	-3.0666512821	-1.1358597101	-1.0458662912	 0.1505
82.4967	128.1192	219.9232	257.819	318.8993	391.6127	436.0445	465.2538	577.4987	641.0626	746.5258	924.7987	961.145	976.3926	1063.2466	1117.1743	1160.3679	1217.1096	1284.5597	1356.3733	1388.0192	1399.5417	1435.1714	1462.9524	1476.3352	1492.7387	1500.1314	1795.0649	2937.9251	3041.7154	3044.0126	3106.5262	3118.4649	3128.1908	3153.064	3668.5952
CC(O)C(C)=O	C[C@@H](O)C(=O)C	
InChI=1S/C4H8O2/c1-3(5)4(2)6/h3,5H,1-2H3	InChI=1S/C4H8O2/c1-3(5)4(2)6/h3,5H,1-2H3/t3-/m1/s1
