12
gdb 4901	6.72676	1.28981	1.09673	3.9245	52.06	-0.2462	0.006	0.2523	982.6707	0.083653	-455.651582	-455.644669	-455.643724	-455.683194	24.507	
O	 0.4854046804	 0.7193449484	-0.779280103	-0.398059
C	-0.0381182981	 0.0785522306	 0.3650041677	-0.176014
C	-1.4209580578	-0.4247758416	 0.1160844497	 0.277032
C	-2.1589958164	-0.5444523433	-0.9847660596	-0.13024
O	-3.3939517333	-1.0683057046	-0.6420568672	-0.207863
C	-3.3909502915	-1.2719574945	 0.7089417721	 0.500027
O	-4.2828588277	-1.7129069466	 1.3562420163	-0.365347
O	-2.1685336528	-0.8714158942	 1.1915901325	-0.243291
H	-0.0014746934	 1.5406078534	-0.9073836534	 0.294257
H	 0.6355086664	-0.757053418	 0.5885501101	 0.148857
H	-0.0427592761	 0.7264804332	 1.2548752591	 0.126335
H	-1.9762960999	-0.3337942728	-2.0222139343	 0.174305
77.1977	166.196	190.334	283.1845	356.8138	385.8423	563.7235	593.0334	699.5365	752.0346	773.29	786.3169	924.1668	957.3132	995.309	1058.3766	1091.1018	1136.7425	1203.4678	1245.146	1300.8296	1394.0234	1421.735	1496.5858	1738.1396	1943.7886	2994.6477	3060.4053	3318.9246	3811.2997
OCC1=COC(=O)O1	OCc1coc(=O)o1	
InChI=1S/C4H4O4/c5-1-3-2-7-4(6)8-3/h2,5H,1H2	InChI=1S/C4H4O4/c5-1-3-2-7-4(6)8-3/h2,5H,1H2
