13
gdb 1460	8.1931	1.44003	1.23426	6.3213	54.16	-0.2411	-0.0115	0.2296	904.6652	0.100495	-377.78067	-377.772672	-377.771728	-377.814079	26.269	
O	 0.2110452211	 1.3853666668	 0.0089104625	-0.384816
C	 0.0164864061	-0.0008783441	 0.0016555288	-0.192778
C	-1.4953753856	-0.2793678797	 0.0144943279	 0.418703
O	-2.3315773377	 0.5798257074	 0.0263811462	-0.279001
N	-1.7535078257	-1.6534047745	 0.0102410389	-0.333321
C	-2.9780631642	-2.3188308993	 0.0181688642	 0.086647
N	-4.1070956089	-1.7461563523	 0.0317218535	-0.395058
H	 1.1576464752	 1.5539886129	-0.0039376301	 0.294406
H	 0.4463765244	-0.4845865346	-0.8931119003	 0.106774
H	 0.4637503379	-0.4962392939	 0.8814590099	 0.10662
H	-0.9456931578	-2.256814204	 8.7582*^-6	 0.250661
H	-2.8157837058	-3.4050352451	 0.0110949055	 0.092018
H	-4.8453302191	-2.4483820295	 0.0350135049	 0.229144
35.1835	66.0433	166.239	169.2796	218.0117	289.9296	380.0713	522.3851	550.5595	595.4224	740.6773	821.3972	934.9583	1025.8209	1028.3224	1063.3791	1149.4872	1173.1975	1239.3696	1256.417	1262.2957	1432.1027	1442.908	1509.564	1541.6376	1740.2683	1861.9599	2944.6035	2968.6338	3022.5218	3497.2192	3624.6065	3837.8236
OCC(=O)NC=N	OCC(=O)NC=N	
InChI=1S/C3H6N2O2/c4-2-5-3(7)1-6/h2,6H,1H2,(H2,4,5,7)	InChI=1S/C3H6N2O2/c4-2-5-3(7)1-6/h2,6H,1H2,(H2,4,5,7)
