17
gdb 2532	3.1473	2.06528	1.32316	4.476	65.13	-0.2442	0.0296	0.2738	926.5736	0.147817	-305.904676	-305.896168	-305.895224	-305.937607	29.577	
C	 0.1820287565	 1.5442903175	 0.0308492321	-0.406953
C	 0.01585414	 0.0238371372	-0.0445432942	-0.187276
C	-1.4569148317	-0.4365766529	 0.0055344267	-0.096307
N	-2.1867772272	-0.0217355603	-1.1881125997	-0.28559
C	-3.6269542233	-0.2530880341	-1.1196883281	-0.329117
C	-1.5099885476	-1.9062673367	 0.1236415614	 0.30559
N	-1.5440027355	-3.055328891	 0.2394495352	-0.331355
H	 1.2427097939	 1.806155152	 0.0801302313	 0.129955
H	-0.2297573728	 2.0552237749	-0.8458189864	 0.123605
H	-0.3037407278	 1.9555573507	 0.922571684	 0.123241
H	 0.4640159881	-0.367075814	-0.9635613188	 0.129312
H	 0.5420637553	-0.4428334915	 0.7939859335	 0.123193
H	-1.9098817994	-0.0406149449	 0.936821046	 0.09809
H	-2.0080026888	 0.963644835	-1.3414744669	 0.226887
H	-4.1140276527	 0.2088055975	-0.2429665957	 0.099246
H	-4.0958278365	 0.1433010498	-2.0239526307	 0.126269
H	-3.8232430004	-1.3289783391	-1.0840103697	 0.151211
82.6986	103.888	154.9676	194.928	215.5285	252.5326	303.2285	343.2422	456.2606	543.5497	583.6778	729.6303	780.8683	859.7277	947.9559	981.1343	1050.0206	1100.2928	1107.1529	1145.999	1164.6581	1219.7881	1287.4252	1321.8662	1358.3905	1384.0579	1415.0957	1460.5409	1478.9337	1482.105	1493.3468	1499.7921	1508.1426	1522.7774	2359.4816	2896.6313	2953.677	3034.3206	3054.2285	3076.5324	3085.9783	3109.0956	3111.5458	3120.322	3548.0451
CCC(NC)C#N	CC[C@@H](NC)C#N	
InChI=1S/C5H10N2/c1-3-5(4-6)7-2/h5,7H,3H2,1-2H3	InChI=1S/C5H10N2/c1-3-5(4-6)7-2/h5,7H,3H2,1-2H3/t5-/m1/s1
