19
gdb 3994	3.10827	1.53033	1.33934	0.7395	75.32	-0.2401	0.0102	0.2503	1026.1629	0.163126	-365.021618	-365.012529	-365.011585	-365.056651	33.427	
C	-0.1658711975	 1.5186047109	 0.1961945001	-0.431839
C	 0.0069288972	 0.0081949214	 0.0123327535	 0.236891
C	-1.3337334089	-0.7230895376	 0.1255851459	-0.43185
C	 0.8682809454	-0.4009774505	-1.2415712124	-0.267583
C	 1.9676004291	-1.0026175006	-0.3108086015	-0.326119
C	 1.115536342	-0.596342015	 0.8711983762	 0.395778
N	 1.1958271751	-0.6781878592	 2.1314564278	-0.245944
O	 2.3922336327	-1.3136868691	 2.5235414756	-0.394443
H	 0.791774973	 2.0429297324	 0.117805735	 0.112709
H	-0.8383884363	 1.9239982872	-0.5684680086	 0.111228
H	-0.5901207477	 1.7428855474	 1.1798535855	 0.127088
H	-2.0316032862	-0.3663186036	-0.6405899251	 0.111225
H	-1.2119704724	-1.803224779	-0.0033623021	 0.112709
H	-1.786010919	-0.5526513946	 1.1075581357	 0.127091
H	 0.3826568904	-1.1280393161	-1.8959220023	 0.102567
H	 1.2016406257	 0.4448110572	-1.8466635878	 0.10256
H	 2.130592312	-2.080784238	-0.3984618933	 0.126825
H	 2.9458637614	-0.5145231882	-0.3490558099	 0.126822
H	 2.3187309338	-1.3059403548	 3.4837786378	 0.304285
8.6932	130.9932	175.0168	221.7647	261.0763	305.4505	310.2198	343.2227	359.4501	432.7536	507.753	561.0678	618.9829	750.2358	776.5428	857.6395	934.3974	937.0429	963.0202	963.5605	990.8737	1011.1659	1097.0818	1126.6827	1195.9004	1203.8198	1230.9469	1245.815	1257.1201	1299.6002	1396.5875	1398.078	1418.6057	1456.6348	1480.7397	1485.2222	1488.0747	1499.401	1507.2612	1777.5214	3024.7577	3028.7454	3055.5621	3069.1474	3093.721	3095.32	3097.4616	3104.014	3107.9265	3123.9679	3817.5978
CC1(C)CCC1=NO	CC1(C)CCC1=NO	
InChI=1S/C6H11NO/c1-6(2)4-3-5(6)7-8/h8H,3-4H2,1-2H3	InChI=1S/C6H11NO/c1-6(2)4-3-5(6)7-8/h8H,3-4H2,1-2H3
