15
gdb 3268	3.67798	3.35385	1.87818	2.1008	58.98	-0.2477	0.0154	0.263	674.6233	0.126692	-345.641848	-345.635625	-345.63468	-345.672046	23.063	
C	-0.0353980121	 1.4270997385	-0.2810525483	 0.01451
O	 1.1693240707	 2.0393059563	 0.0793107031	-0.222187
C	 2.2350559973	 1.9034070599	-0.8379077955	-0.131588
C	 2.6202440357	 0.5127451554	-1.2643906381	-0.06528
C	 1.9006950358	-0.6078951036	-1.263777785	-0.065274
C	 0.4760940631	-0.8360639351	-0.8364051893	-0.131585
O	-0.0905671867	 0.0771564938	 0.0803640753	-0.222189
H	-0.8130864351	 1.9267609132	 0.3018886179	 0.115454
H	-0.2334125669	 1.5536670583	-1.3616170759	 0.07325
H	 2.0236560559	 2.4932433563	-1.7505414803	 0.102674
H	 3.0926427264	 2.3854126866	-0.3555767005	 0.121467
H	 3.6251701107	 0.4646279035	-1.6820694427	 0.093302
H	 2.3624444003	-1.5019672811	-1.6809952458	 0.093302
H	-0.1486637333	-0.8900536552	-1.7486881156	 0.102674
H	 0.394965178	-1.8160681067	-0.3532501893	 0.121468
99.2427	171.8603	346.7554	384.7151	402.8978	462.6327	612.7199	677.0218	812.5142	833.2951	914.9167	963.9457	991.2384	1018.8059	1018.9938	1041.3958	1139.872	1140.827	1208.6855	1265.2452	1272.1823	1311.4204	1344.1216	1400.5823	1414.6852	1420.8022	1447.6397	1478.9088	1484.9037	1503.6994	1747.0849	2923.2531	2923.5409	2936.5554	3061.0705	3061.7577	3099.0715	3124.4915	3147.9182
C1OCC=CCO1	C1OCC=CCO1	
InChI=1S/C5H8O2/c1-2-4-7-5-6-3-1/h1-2H,3-5H2	InChI=1S/C5H8O2/c1-2-4-7-5-6-3-1/h1-2H,3-5H2
