17
gdb 4338	3.80438	1.76944	1.22604	2.187	78.29	-0.2446	-0.0153	0.2293	994.1025	0.143085	-326.803951	-326.796023	-326.795079	-326.837712	28.328	
C	 0.1313447061	 1.5307127759	 0.0267341177	-0.493549
C	 0.0764483228	 0.0249913571	 0.0101362913	 0.321898
C	 0.0458510543	-0.690329869	-1.1871723744	-0.243845
C	-0.0305535941	-2.0844244794	-1.1745399137	 0.339163
C	-0.0642439098	-2.8837091495	-2.4517783037	-0.465176
N	-0.0747446258	-2.7866810866	-0.0328561528	-0.32721
C	-0.0425053267	-2.1032993396	 1.1118794691	 0.000274
C	 0.0329251747	-0.717062512	 1.1908184742	-0.203902
H	 0.7253051931	 1.8986693737	 0.8684338018	 0.131577
H	 0.5609943104	 1.9256869527	-0.8978512472	 0.128898
H	-0.8742998931	 1.9561974226	 0.1293679126	 0.140932
H	 0.0836252079	-0.1628122223	-2.1355975799	 0.08651
H	-0.0273680686	-2.2411536734	-3.3349086615	 0.11418
H	 0.7811246619	-3.5783048066	-2.4884389208	 0.138756
H	-0.9749180423	-3.4895407797	-2.4970737042	 0.138801
H	-0.0757443525	-2.6980320453	 2.022617183	 0.102892
H	 0.0594810517	-0.2260988087	 2.1584048083	 0.089804
25.5261	52.6414	191.2097	216.6646	276.6036	406.0213	452.12	520.5	552.1148	561.1725	758.327	765.4692	844.2602	906.8311	930.4461	989.1807	994.5477	1014.2937	1031.9693	1061.0777	1063.0389	1136.055	1191.1642	1290.0365	1296.5665	1327.8784	1408.0738	1411.1284	1426.3116	1475.862	1483.915	1487.0275	1494.0613	1517.5814	1604.7787	1642.5165	3031.7733	3040.3639	3091.0367	3100.6695	3118.4071	3123.6259	3143.5885	3169.6799	3181.0557
CC1=CC(C)=NC=C1	Cc1cc(C)ncc1	
InChI=1S/C7H9N/c1-6-3-4-8-7(2)5-6/h3-5H,1-2H3	InChI=1S/C7H9N/c1-6-3-4-8-7(2)5-6/h3-5H,1-2H3
