12
gdb 1231	8.10414	1.29811	1.20018	3.9862	48.14	-0.2604	-0.0321	0.2283	923.5523	0.088066	-397.697425	-397.689752	-397.688808	-397.730742	25.275	
N	-0.1820690266	 1.2828146409	 0.1807660612	-0.557902
C	-0.0607097934	-0.069402948	 0.2481286766	 0.504855
O	 0.730822705	-0.6744760482	 0.9299487563	-0.3874
O	-0.9993619244	-0.6488354234	-0.5608766582	-0.261586
C	-1.0300323688	-2.0731393279	-0.5681266048	-0.166775
C	-2.3511079957	-2.5637920293	-0.0045135374	 0.144346
O	-2.8008976336	-3.6559021435	-0.2244795884	-0.229326
H	 0.5509983601	 1.8286909471	 0.5979743639	 0.275688
H	-0.7457888861	 1.6958118116	-0.5417325736	 0.270773
H	-0.9078216178	-2.4275923997	-1.5952557488	 0.141901
H	-0.209890029	-2.4591912329	 0.0485748756	 0.174732
H	-2.8661822497	-1.8228687465	 0.6478428674	 0.090694
29.4453	84.1983	95.542	275.7515	289.6437	346.1965	408.6379	524.7375	567.3789	646.5391	761.1889	779.4572	889.9844	1046.379	1100.2201	1123.4379	1130.6802	1267.9368	1321.5518	1378.7963	1412.6624	1454.5046	1611.0321	1841.5327	1846.7244	2885.9322	3048.503	3109.8559	3622.7221	3755.2244
NC(=O)OCC=O	NC(=O)OCC=O	
InChI=1S/C3H5NO3/c4-3(6)7-2-1-5/h1H,2H2,(H2,4,6)	InChI=1S/C3H5NO3/c4-3(6)7-2-1-5/h1H,2H2,(H2,4,6)
