15
gdb 2326	5.88358	1.42951	1.34108	3.195	57.96	-0.2436	-0.0163	0.2274	900.9011	0.123081	-345.640072	-345.632412	-345.631468	-345.672881	26.687	
O	-0.1779180069	 1.4892475154	 0.1318214767	-0.414149
C	-0.0424751535	 0.101026323	 0.0512612761	 0.09463
C	-0.5643473827	-0.7690788541	 1.1669314004	-0.322761
C	-1.3012904826	-0.6916626325	-0.1590226182	-0.033264
C	-2.6441885354	 0.0142841451	-0.2356636518	-0.291962
C	-3.7626133342	-0.8778911428	 0.2578840597	 0.169249
O	-4.5526029007	-0.5838019282	 1.1173307144	-0.239755
H	 0.4209494169	 1.8084774086	 0.8145126767	 0.291808
H	 0.8484136912	-0.2375592738	-0.4778737721	 0.090619
H	-0.029105536	-1.6763862048	 1.4243538641	 0.115275
H	-1.023415234	-0.2563200375	 2.0063094961	 0.125958
H	-1.2056848716	-1.5566400927	-0.809993874	 0.093561
H	-2.6384070055	 0.9392282511	 0.3430421844	 0.134588
H	-2.8593106728	 0.2729002523	-1.282956747	 0.120144
H	-3.8097684721	-1.874522669	-0.2429796955	 0.066061
44.8907	65.7944	164.556	260.1054	290.9268	341.7661	448.7817	488.7996	575.6694	744.0384	795.1761	845.7649	883.2274	948.1971	987.3867	1036.3322	1068.1872	1085.623	1136.0222	1157.5689	1176.7827	1224.2476	1240.4473	1288.0006	1301.6542	1393.2005	1424.7401	1430.3029	1464.4572	1489.6046	1836.2355	2845.2868	3011.7747	3096.7822	3125.9915	3131.0057	3144.6396	3220.1017	3812.2244
OC1CC1CC=O	O[C@H]1C[C@H]1CC=O	
InChI=1S/C5H8O2/c6-2-1-4-3-5(4)7/h2,4-5,7H,1,3H2	InChI=1S/C5H8O2/c6-2-1-4-3-5(4)7/h2,4-5,7H,1,3H2/t4-,5+/m1/s1
