14
gdb 646	5.83369	4.67863	4.29188	0.1535	56.94	-0.2223	0.0181	0.2404	430.2843	0.122474	-233.260156	-233.255731	-233.254787	-233.287494	18.431	
C	-0.0429186158	 1.5747498883	-0.0481807317	-0.199639
C	 1.5066496156	 1.3376773256	 0.0126527039	-0.059152
C	 1.1675688277	 0.1696496186	 1.0035485903	-0.19964
C	-0.0447790183	 0.0074841807	 0.0212135035	-0.059152
C	 0.7000531311	-0.3257117231	-1.2809220753	-0.076708
C	 1.7138074199	 0.5438058843	-1.2866579653	-0.076708
H	-0.4457902524	 2.0504509747	 0.8520134647	 0.090377
H	-0.4462121063	 2.0393231018	-0.9510647904	 0.09114
H	 2.2114775222	 2.1307756911	 0.2609893933	 0.057889
H	 1.8776732475	-0.6581591387	 1.0680299153	 0.09114
H	 0.8761480017	 0.5159244441	 2.0006014599	 0.090377
H	-0.9345792057	-0.5666237709	 0.2783401637	 0.05789
H	 0.4315113801	-1.0914417312	-1.994576123	 0.096094
H	 2.5068567326	 0.6885687049	-2.0062936388	 0.096094
452.1457	525.6401	535.8166	699.5712	729.6118	824.5807	837.1989	847.1627	852.2585	910.3049	913.4886	948.8019	995.9885	1003.9584	1065.7416	1065.9357	1106.7705	1107.9331	1144.9562	1225.6479	1226.3557	1234.5864	1256.3435	1273.4936	1333.0239	1478.555	1512.3099	1626.3877	3040.0448	3050.3481	3113.0925	3116.8146	3118.133	3119.6592	3219.9563	3247.4732
C1C2CC1C=C2	C1[C@H]2C[C@@H]1C=C2	
InChI=1S/C6H8/c1-2-6-3-5(1)4-6/h1-2,5-6H,3-4H2	InChI=1S/C6H8/c1-2-6-3-5(1)4-6/h1-2,5-6H,3-4H2/t5-,6+
