13
gdb 2633	7.63245	1.25158	1.14332	5.3992	55.48	-0.2713	0.0073	0.2785	963.0979	0.101931	-340.676668	-340.669125	-340.668181	-340.709143	25.063	
O	 0.5697980298	 1.0229660043	-1.5223782402	-0.317235
C	 0.2592750941	 1.5349686131	-0.4673781469	 0.150177
N	 1.0976503534	 1.6585393755	 0.5966494581	-0.271678
C	 2.4533843717	 1.1413378173	 0.5630677133	-0.160548
C	 3.3791394398	 2.003192319	-0.3282227855	-0.329261
C	 4.754556355	 1.5161621898	-0.306847688	 0.257525
N	 5.8372394734	 1.114593356	-0.2646249332	-0.300216
H	-0.744753147	 1.954956129	-0.2638375949	 0.087588
H	 0.7624818465	 2.1139240035	 1.4296729887	 0.257801
H	 2.8367586101	 1.1072793046	 1.5848386859	 0.132347
H	 2.4365602174	 0.1211010861	 0.1702337796	 0.158086
H	 2.9967192277	 1.9785477618	-1.3526982232	 0.187077
H	 3.3635129482	 3.0450412601	 0.0093505663	 0.148336
70.0189	77.3454	147.3518	210.6882	265.7332	392.6444	401.8086	501.7449	528.574	729.3668	824.5388	954.9427	980.765	1020.3757	1037.3001	1088.4508	1205.5212	1245.6247	1297.7227	1337.9743	1403.6553	1425.9487	1470.5568	1480.639	1522.1387	1800.5809	2363.8364	2950.428	3054.5224	3072.489	3103.2362	3129.5808	3646.5408
O=CNCCC#N	O=CNCCC#N	
InChI=1S/C4H6N2O/c5-2-1-3-6-4-7/h4H,1,3H2,(H,6,7)	InChI=1S/C4H6N2O/c5-2-1-3-6-4-7/h4H,1,3H2,(H,6,7)
