14
gdb 806	3.52485	2.14842	1.44961	0.6625	64.81	-0.2383	-0.031	0.2072	830.6001	0.110998	-324.505365	-324.497426	-324.496481	-324.537589	28.334	
C	-0.0150032576	 1.5440438684	 0.0404229689	-0.375281
C	-0.0141662287	 0.006744658	-0.0272188011	-0.276293
C	 0.7459416958	-0.5064566507	-1.2315866136	 0.197029
N	 2.0191958104	-0.6974176805	-1.2808875672	-0.160082
O	 2.6310572054	-0.3757424999	-0.0692394583	-0.388149
C	 0.0210587059	-0.7814976723	-2.4277935715	 0.277876
C	-0.6606031519	-0.9889846874	-3.398325702	-0.41787
H	 1.0057341788	 1.9254099406	 0.1225802044	 0.137064
H	-0.4730665166	 1.976892312	-0.8540031301	 0.127369
H	-0.5814089254	 1.8864631112	 0.9114682924	 0.11773
H	 0.4497877295	-0.4020028127	 0.8741655139	 0.131396
H	-1.0406505803	-0.3658951987	-0.0800944316	 0.113919
H	 3.5537064739	-0.5896431679	-0.2453665573	 0.313328
H	-1.2405239792	-1.1789710002	-4.267521507	 0.201963
55.0234	156.8144	178.5206	229.1709	264.6536	332.3814	413.5107	477.5378	534.6761	562.6	611.7276	657.8406	669.8362	761.3771	808.0526	982.7852	1003.0198	1071.878	1092.7154	1237.6648	1293.9161	1348.0656	1405.3463	1411.2314	1480.6626	1498.5322	1508.0888	1669.903	2226.1988	3044.3073	3062.1265	3104.2678	3116.0426	3131.8681	3502.9594	3817.1407
CCC(=NO)C#C	CCC(=NO)C#C	
InChI=1S/C5H7NO/c1-3-5(4-2)6-7/h1,7H,4H2,2H3	InChI=1S/C5H7NO/c1-3-5(4-2)6-7/h1,7H,4H2,2H3
