14
gdb 3691	7.27251	2.05317	1.63383	5.488	59.86	-0.2395	0.0246	0.2641	757.131	0.114286	-320.795216	-320.788281	-320.787337	-320.826056	24.486	
C	 0.0279541647	 1.4899452114	 0.0359278478	-0.504894
C	-0.005194929	 0.001881226	-0.0124018817	 0.363981
N	-0.1430681906	-0.7328989676	-1.0868850965	-0.259303
N	-0.1242142351	-2.0605233947	-0.6970235874	-0.259303
C	 0.0263125088	-2.0939742457	 0.602840891	 0.363981
C	 0.1018242014	-3.3183481139	 1.4472204417	-0.504894
N	 0.1063528335	-0.8124319229	 1.0861342546	-0.335059
H	 0.9702871077	 1.8627509363	 0.4528884147	 0.134411
H	-0.0750250635	 1.8700582935	-0.9813207397	 0.165791
H	-0.7891788618	 1.8957601968	 0.6429965847	 0.134776
H	 1.0576311905	-3.3878919519	 1.9787532455	 0.134796
H	-0.6986422903	-3.3470401564	 2.195054507	 0.134391
H	 0.0019830573	-4.1902883785	 0.7994261885	 0.165791
H	 0.2226357263	-0.5292644927	 2.0448067998	 0.265534
118.6022	128.1173	182.7218	260.6968	331.4395	402.7409	530.9081	618.854	687.8659	700.5279	742.9457	970.8498	1010.5132	1040.0565	1042.8664	1064.3827	1070.135	1101.639	1204.2678	1396.5772	1402.3586	1410.2438	1434.7572	1482.2811	1482.4624	1490.7762	1492.9845	1563.7035	1606.4723	3033.0536	3033.8941	3084.8096	3085.073	3148.289	3148.3526	3659.52
CC1=NN=C(C)N1	Cc1nnc(C)[nH]1	
InChI=1S/C4H7N3/c1-3-5-4(2)7-6-3/h1-2H3,(H,5,6,7)	InChI=1S/C4H7N3/c1-3-5-4(2)7-6-3/h1-2H3,(H,5,6,7)
