14
gdb 3622	5.41252	3.73979	3.5436	1.8018	58.85	-0.2259	0.0811	0.307	490.0515	0.11619	-287.347	-287.342562	-287.341618	-287.374779	18.888	
C	-0.0360591727	 1.5637960341	-0.1146492947	-0.238257
C	 1.5012435382	 1.4574131307	 0.0371489787	-0.067506
C	 1.9574647989	 0.4829737562	-1.067542566	-0.044822
C	 2.0388994868	-0.6912703174	-0.1679946123	-0.053151
C	 1.3217866463	 0.1506718904	 0.9172015878	-0.074968
C	 0.0110042519	 0.0400158085	 0.0789196192	 0.015059
N	 0.8489389768	-0.5350613848	-1.0600882876	-0.151805
H	-0.493642469	 2.0573448934	 0.7486996668	 0.102371
H	-0.4512929605	 1.961667017	-1.0448076804	 0.103967
H	 2.1431983589	 2.2925326221	 0.3098791004	 0.073556
H	 2.4440030872	 0.6876331162	-2.0128475797	 0.093997
H	 2.6679350203	-1.5731886068	-0.1621409004	 0.093191
H	 1.411722682	 0.1189137972	 1.999574398	 0.072983
H	-0.8570632353	-0.5720811968	 0.3184834602	 0.075385
402.3591	533.2094	715.0965	748.9314	776.5695	781.2224	814.7408	837.0015	872.1726	881.2985	922.0569	943.9434	961.6481	986.5133	1007.7746	1037.2545	1052.6498	1074.6283	1097.6089	1153.1361	1169.4446	1194.829	1208.2558	1243.4258	1255.4955	1279.9566	1281.5027	1335.8354	1478.7852	3049.5243	3109.4869	3127.7057	3137.812	3153.2331	3180.5316	3196.049
C1C2C3C4C2C1N34	C1[C@@H]2[C@H]3[C@H]4[C@@H]2[C@@H]1N34	
InChI=1S/C6H7N/c1-2-4-3(1)7-5(2)6(4)7/h2-6H,1H2	InChI=1S/C6H7N/c1-2-4-3(1)7-5(2)6(4)7/h2-6H,1H2/t2-,3+,4-,5-,6+,7?/m0/s1
