16
gdb 1949	8.13555	1.47874	1.38975	4.3248	65.32	-0.3031	0.0307	0.3338	884.2992	0.1375	-288.653294	-288.646192	-288.645248	-288.684412	25.976	
C	-0.239790184	 1.478677291	-0.0289042464	-0.395325
C	 0.0311587342	-0.0223378887	 0.0128356883	 0.02206
C	 1.2211185204	-0.4854301069	-0.8794818961	-0.235625
C	 2.124731323	-0.5316777227	 0.3946659973	-0.124388
C	 0.8272260938	-0.4968964948	 1.2649417222	-0.235627
C	 3.0254152611	-1.659512213	 0.5540661347	 0.260507
N	 3.7248477251	-2.5724401858	 0.6776332841	-0.328053
H	 0.6743417906	 2.0594045314	 0.1420728507	 0.115766
H	-0.644009899	 1.7775403862	-1.0018187032	 0.121147
H	-0.9638748469	 1.7682338196	 0.7399479182	 0.121147
H	-0.8996776271	-0.5679769378	-0.1610603869	 0.080773
H	 1.070609378	-1.4820648538	-1.2988214987	 0.124409
H	 1.5454873773	 0.1894671293	-1.6746984911	 0.112551
H	 2.6976949438	 0.3926143833	 0.5048572595	 0.123698
H	 0.8465573512	 0.1691324236	 2.1304485033	 0.112551
H	 0.5394136086	-1.4975232508	 1.593100834	 0.124408
79.8772	156.3596	228.601	249.9418	333.7664	365.7686	538.2655	548.5381	619.8292	797.7468	822.8921	884.3887	903.6896	931.5388	956.9865	1031.7236	1036.1106	1097.0117	1139.1283	1141.4723	1235.5766	1237.2127	1245.7519	1277.1265	1279.9441	1346.8581	1373.1719	1413.0708	1473.7277	1493.6866	1496.5523	1499.9654	2351.2634	3026.2981	3063.4642	3069.2491	3074.8082	3078.1986	3095.4002	3100.1635	3128.509	3132.0557
CC1CC(C1)C#N	C[C@H]1C[C@@H](C1)C#N	
InChI=1S/C6H9N/c1-5-2-6(3-5)4-7/h5-6H,2-3H2,1H3	InChI=1S/C6H9N/c1-5-2-6(3-5)4-7/h5-6H,2-3H2,1H3/t5-,6-
