15
gdb 2083	4.83703	2.57553	1.77679	4.2037	57.5	-0.2353	0.0609	0.2962	698.4414	0.128893	-341.890999	-341.884586	-341.883641	-341.921343	23.871	
O	 0.0010180123	-0.0649329544	-0.139844009	-0.416861
C	-0.0134295654	 1.1446899764	 0.0143075654	 0.432043
N	-1.1870063524	 1.8559016862	 0.15518562	-0.333104
C	-1.2907756898	 3.3039074466	 0.0805390834	-0.151927
C	-0.0422743797	 3.930468733	 0.7001372758	-0.195421
C	 1.2060188549	 3.338025541	 0.0474325492	-0.151898
N	 1.1436633363	 1.8877282806	 0.123637694	-0.333097
H	-2.003136557	 1.2968693413	-0.0343107739	 0.24835
H	-1.4023458025	 3.6527160435	-0.9592203609	 0.101671
H	-2.1872846536	 3.6225074083	 0.6229376022	 0.111602
H	-0.0588765497	 5.0153297981	 0.5631381773	 0.106068
H	-0.0252072154	 3.7218949064	 1.7748964989	 0.120946
H	 1.2806750477	 3.6897619916	-0.9946392355	 0.101674
H	 2.1074999892	 3.6808858433	 0.5663018527	 0.111601
H	 1.9693398151	 1.3511054982	-0.0879893597	 0.248351
121.472	123.9901	308.2359	420.5484	454.2357	480.2288	554.6234	555.4568	685.6	761.0559	832.6149	902.3981	906.5443	969.4545	1019.8523	1119.1231	1144.8005	1163.8659	1204.1815	1229.3834	1296.0685	1334.7165	1374.8023	1391.7419	1424.057	1464.7469	1481.6173	1482.5937	1527.7921	1534.5643	1803.6847	2962.9428	2969.5864	3048.2236	3059.1537	3066.7397	3104.6493	3644.7714	3647.4322
O=C1NCCCN1	O=C1NCCCN1	
InChI=1S/C4H8N2O/c7-4-5-2-1-3-6-4/h1-3H2,(H2,5,6,7)	InChI=1S/C4H8N2O/c7-4-5-2-1-3-6-4/h1-3H2,(H2,5,6,7)
