11
gdb 3832	5.90058	2.85157	1.92249	2.3366	57.98	-0.2273	-0.0463	0.181	604.1432	0.08158	-335.590859	-335.585462	-335.584518	-335.620063	19.911	
N	-0.0903680419	 1.3272376044	 0.0009825399	-0.53445
C	 0.0055709107	 0.0445471841	 0.0072994349	 0.224085
C	 1.2226918785	-0.7649128591	 0.0031664408	-0.037759
N	 1.2303774116	-2.0619967007	 0.0099648754	-0.17846
N	 0.0408901971	-2.6662579076	 0.0216244311	-0.092151
N	-1.1680570218	-2.0892278099	 0.0272406835	-0.18913
C	-1.1902568768	-0.7935833531	 0.0204784307	 0.033025
H	 0.8383750931	 1.7557057463	-0.0078582466	 0.210945
H	 2.1979172036	-0.284436348	-0.00645009	 0.12687
H	 0.052738003	-3.6721784487	 0.0267400695	 0.294766
H	-2.1670494771	-0.3209392378	 0.0249482108	 0.142259
120.1824	365.8707	406.4549	465.1533	553.2463	562.0688	640.2822	763.042	820.5803	851.203	925.2565	964.8665	997.7351	1108.9274	1119.6671	1170.749	1334.1524	1366.9343	1421.261	1458.6181	1606.754	1632.052	1686.8645	3164.7792	3194.3889	3437.0196	3671.5221
N=C1C=NNN=C1	[NH]c1cn[nH]nc1	
InChI=1S/C3H4N4/c4-3-1-5-7-6-2-3/h1-2H,(H2,4,7)	InChI=1S/C3H9N4/c4-3-1-5-7-6-2-3/h3-7H,1-2H2
