12
gdb 2810	4.01831	2.32502	1.60727	1.7135	62.72	-0.248	0.018	0.266	741.8895	0.088237	-286.134079	-286.12716	-286.126216	-286.16481	25.509	
C	-0.1871824598	-1.2141523805	 0.0038066465	-0.421938
C	-0.0787369352	-0.0178461819	 0.0290620215	 0.387115
C	 0.0226077445	 1.4132922203	 0.0156263887	-0.247238
N	 0.5271594442	 2.0828735909	 1.2290660764	-0.314354
C	 1.3514835659	 2.1321102365	 0.0070176736	-0.247178
C	 2.6048425023	 1.4337703408	 0.0116810528	 0.387054
C	 3.6650348606	 0.8694317994	-0.0209671421	-0.421936
H	-0.2714785189	-2.2726259264	-0.006466286	 0.200623
H	-0.7664141705	 1.9164536497	-0.5404065482	 0.117287
H	 0.0473811951	 2.9714204649	 1.3527189638	 0.242653
H	 1.3565797451	 3.0648176936	-0.5541671602	 0.117287
H	 4.5970753167	 0.3608907028	-0.0373779667	 0.200624
97.6423	186.5709	236.0779	239.3691	420.1892	510.5026	578.0323	609.7427	621.8497	645.5674	661.5543	663.0463	765.1046	832.914	901.2554	974.0049	978.0994	1101.0793	1185.6854	1201.5859	1241.5993	1398.5118	1435.5955	2244.9655	2247.3991	3117.2416	3125.9665	3500.5413	3504.7105	3505.3598
C#CC1NC1C#C	C#C[C@H]1N[C@H]1C#C	
InChI=1S/C6H5N/c1-3-5-6(4-2)7-5/h1-2,5-7H	InChI=1S/C6H5N/c1-3-5-6(4-2)7-5/h1-2,5-7H/t5-,6+
