13
gdb 2520	3.33923	2.13332	1.38	2.5991	56.74	-0.2526	-0.0323	0.2204	828.3881	0.098546	-344.416821	-344.408825	-344.407881	-344.449447	27.275	
O	 0.1297898499	 1.4041518585	-0.2090803088	-0.403569
C	 0.0703366292	 0.0131914044	 0.0144297171	-0.075374
C	-1.3893791303	-0.5124642549	 0.0457466402	-0.274994
C	-2.1117726344	-0.0707566008	-1.2340357815	 0.185395
O	-3.0583447231	 0.6650918708	-1.2493020512	-0.238055
C	-1.4163614029	-1.9644450462	 0.1509073861	 0.294489
C	-1.4148493832	-3.1657947941	 0.1940825109	-0.443408
H	-0.2907764037	 1.8542788397	 0.5311573184	 0.29285
H	 0.6032731199	-0.4539976166	-0.8193799177	 0.131023
H	 0.5755295224	-0.2909083731	 0.9414319766	 0.114392
H	-1.9250346403	-0.0551848316	 0.8870339284	 0.118218
H	-1.6747659336	-0.4970095541	-2.1635250321	 0.092123
H	-1.4263027497	-4.2265500121	 0.2487173136	 0.206909
69.8994	103.108	142.3133	185.1942	256.3039	327.4565	417.5236	476.9202	490.5401	528.1929	644.6269	652.9122	860.7902	943.2514	1005.3794	1059.2904	1071.6868	1111.9804	1179.595	1271.2409	1314.6561	1380.7153	1402.6583	1421.057	1505.234	1845.4415	2233.7263	2896.337	3013.0986	3037.9236	3091.4868	3502.4005	3813.9682
OCC(C=O)C#C	OC[C@@H](C=O)C#C	
InChI=1S/C5H6O2/c1-2-5(3-6)4-7/h1,3,5,7H,4H2	InChI=1S/C5H6O2/c1-2-5(3-6)4-7/h1,3,5,7H,4H2/t5-/m1/s1
