15
gdb 1488	7.52643	1.24039	1.13302	1.3133	54.37	-0.257	-0.0282	0.2288	991.1089	0.122703	-382.790027	-382.781886	-382.780942	-382.823001	28.049	
O	 0.1438147628	 1.4004655731	-0.0319986065	-0.420159
C	 0.1083622103	-0.0057208456	 0.0394361664	-0.058601
C	-1.3357006475	-0.5127819516	 0.0310775159	 0.093589
O	-2.0253429132	 0.0405119786	-1.0943594421	-0.434505
C	-1.4402165545	-2.0402290614	 0.0588145372	-0.313637
C	-2.8844971183	-2.4953531538	 0.0046955659	 0.170498
O	-3.3259568742	-3.2676798578	-0.8045042786	-0.236182
H	-0.517725617	 1.6425194642	-0.6934455138	 0.287569
H	 0.6553445887	-0.4711293939	-0.8014055342	 0.077098
H	 0.6145438315	-0.3035131307	 0.9644441348	 0.110046
H	-1.853475264	-0.0875252046	 0.8993469904	 0.10627
H	-1.7318200802	-0.4260483679	-1.8866814987	 0.290477
H	-0.8978312585	-2.4952198604	-0.7779005599	 0.117617
H	-0.9959026332	-2.4119496002	 0.9928006388	 0.129815
H	-3.5339709128	-2.0507793481	 0.7932453343	 0.080106
58.8437	87.4169	146.4065	172.5749	286.132	338.3916	360.5233	441.2243	490.3224	511.0806	588.3614	788.376	869.4659	951.7469	1000.2774	1058.9114	1086.0791	1101.6555	1131.8491	1187.5265	1211.9826	1261.8804	1318.0816	1350.573	1387.0311	1419.7182	1429.2348	1443.6734	1458.3887	1505.2535	1840.0447	2872.4999	2935.6062	3020.6637	3047.1239	3067.9545	3083.292	3766.5427	3783.6772
OCC(O)CC=O	OC[C@@H](O)CC=O	
InChI=1S/C4H8O3/c5-2-1-4(7)3-6/h2,4,6-7H,1,3H2	InChI=1S/C4H8O3/c5-2-1-4(7)3-6/h2,4,6-7H,1,3H2/t4-/m0/s1
