11
gdb 858	7.29061	2.21579	1.70181	2.3094	48.44	-0.1945	0.0344	0.2288	666.4198	0.07996	-376.605641	-376.59963	-376.598686	-376.635072	22.685	
N	-0.0210793948	 1.3081568604	 0.1601293907	-0.584431
C	-0.0532156994	-0.0561240437	 0.0399344891	 0.475965
N	-1.1043683158	-0.8168766871	-0.0716312076	-0.419051
C	-0.5724461695	-2.0966268131	-0.0747681073	 0.330281
O	-1.3719379266	-3.1743816218	-0.1764944289	-0.431101
C	 0.7744942091	-2.0565606172	 0.0275865127	-0.170512
O	 1.118690163	-0.7017580703	 0.1042531486	-0.183551
H	 0.8347062793	 1.741200882	-0.153702065	 0.266801
H	-0.8567988932	 1.7608871398	-0.1775123587	 0.271625
H	-2.2753598011	-2.8398423658	-0.2234913028	 0.304416
H	 1.5759881788	-2.7685588431	 0.0585507293	 0.13956
227.4911	296.2702	339.0634	344.1245	376.0903	495.4976	575.2873	595.7769	651.7114	690.7156	759.0709	781.6411	978.525	1025.5373	1095.104	1139.7642	1185.5432	1279.1005	1385.9245	1463.5306	1603.7695	1681.9074	1713.7087	3328.1521	3581.7921	3691.8348	3811.3066
NC1=NC(O)=CO1	Nc1nc(O)co1	
InChI=1S/C3H4N2O2/c4-3-5-2(6)1-7-3/h1,6H,(H2,4,5)	InChI=1S/C3H4N2O2/c4-3-5-2(6)1-7-3/h1,6H,(H2,4,5)
