14
gdb 1603	4.25463	2.00734	1.50605	3.6223	58.71	-0.2927	-0.0847	0.208	808.909	0.111296	-324.606491	-324.598498	-324.597553	-324.638932	27.267	
C	 0.1925403226	 1.4362368444	 0.0791239627	-0.407044
C	-0.0706975671	-0.0815056313	-0.0269753018	-0.083658
C	-1.5616619192	-0.4209890458	-0.0465038084	-0.39693
C	 0.6300754034	-0.6423097254	-1.2503239514	 0.299378
O	 0.090090459	-1.1628678384	-2.192701889	-0.269278
C	 2.1096026465	-0.5131029087	-1.2352362042	 0.234222
N	 3.2620542777	-0.4199433861	-1.2120659383	-0.304062
H	 1.2617423052	 1.6647566468	 0.0920432309	 0.147504
H	-0.2646473505	 1.9678512899	-0.7614259905	 0.136089
H	-0.2469417059	 1.8200669274	 1.0034282851	 0.135167
H	 0.4115144746	-0.5596162547	 0.8386461433	 0.117398
H	-2.054389085	 0.0411595095	-0.9063408132	 0.137036
H	-1.7246296415	-1.4994028541	-0.1130252449	 0.13403
H	-2.0402771599	-0.0521582436	 0.8647494098	 0.120149
51.1968	143.9835	192.3276	207.1788	248.7693	285.3454	325.2125	368.6332	488.3671	589.0731	708.7834	754.7146	882.2913	936.4751	971.1544	1052.1736	1106.5818	1140.9148	1201.3672	1303.4487	1361.4881	1402.8279	1423.1962	1483.9481	1487.2229	1501.7607	1508.3033	1797.5292	2334.8101	3006.1722	3043.2752	3050.6566	3117.6125	3123.4492	3125.5337	3127.7126
CC(C)C(=O)C#N	CC(C)C(=O)C#N	
InChI=1S/C5H7NO/c1-4(2)5(7)3-6/h4H,1-2H3	InChI=1S/C5H7NO/c1-4(2)5(7)3-6/h4H,1-2H3
