10
gdb 217	6.30165	6.09672	3.09875	2.2031	48.47	-0.2531	-0.0415	0.2116	408.2875	0.076933	-264.261826	-264.257646	-264.256702	-264.289179	15.138	
C	-0.0298372799	 1.3893259533	 0.0104000131	-0.12959
C	 1.1949381548	 2.0465998247	 0.0019228846	 0.024927
N	 2.3582089196	 1.3905738845	-0.0131446522	-0.239024
C	 2.2723677814	 0.0590437614	-0.0195851237	 0.081711
N	 1.1616238212	-0.6802639056	-0.0127033272	-0.239024
C	 0.0123389107	-0.0000281834	 0.0023583282	 0.024926
H	-0.9679593093	 1.9314062752	 0.0226300754	 0.112382
H	 1.2503769018	 3.1330687153	 0.0073287004	 0.120718
H	 3.2140534195	-0.4850894231	-0.0318815051	 0.122255
H	-0.9012695497	-0.5906237222	 0.0081220964	 0.120718
353.4533	410.6325	631.804	693.206	744.233	834.8169	987.8539	1008.941	1010.1754	1030.3499	1082.5082	1095.1784	1165.1387	1227.2676	1259.4474	1395.5235	1439.3428	1496.0587	1609.8761	1612.4822	3153.5406	3156.2458	3164.7688	3207.0342
C1=CN=CN=C1	c1cncnc1	
InChI=1S/C4H4N2/c1-2-5-4-6-3-1/h1-4H	InChI=1S/C4H4N2/c1-2-5-4-6-3-1/h1-4H
