15
gdb 2868	7.22002	1.78967	1.48072	0.7776	72.43	-0.2236	-0.0137	0.2099	816.4254	0.125646	-271.372094	-271.36541	-271.364465	-271.40255	25.138	
C	 0.0628639356	-1.1902582926	 0.0014078121	-0.41768
C	-0.0165896524	 0.0123440225	 0.0256049635	 0.198479
C	-0.0465847444	 1.4269490174	 0.0590555551	 0.21274
C	-1.1388402625	 2.2065593281	 0.0588512675	-0.164804
C	-0.7968003875	 3.6730137655	 0.0465036603	-0.244047
C	 0.7178254617	 3.6867242622	 0.3783163897	-0.213215
C	 1.2266454577	 2.2629426434	 0.0462293909	-0.311965
H	 0.1146333368	-2.2503078058	-0.0220987191	 0.189535
H	-2.1558114912	 1.8333107591	 0.0296800667	 0.097131
H	-1.004901852	 4.1055069766	-0.9433339696	 0.111465
H	-1.3904342513	 4.2543405056	 0.761130965	 0.106959
H	 1.2622617328	 4.4649623293	-0.1618065851	 0.100223
H	 0.8517993348	 3.8799147659	 1.447112506	 0.109236
H	 1.9696925373	 1.8982900116	 0.7620784143	 0.11257
H	 1.6966467946	 2.2103585114	-0.9447320575	 0.113372
121.6188	161.1256	175.0437	361.7329	512.9982	527.4786	547.0575	590.9271	631.7984	654.4516	815.3496	848.3194	880.4627	909.5053	919.0424	963.7568	1036.8233	1065.1526	1145.6058	1159.7826	1228.4012	1241.0986	1275.0697	1318.0362	1326.2601	1349.4982	1481.8422	1487.2813	1505.9068	1672.6425	2220.3642	2999.8408	3021.9972	3046.9601	3059.593	3075.9698	3104.9778	3203.8693	3504.7513
C#CC1=CCCC1	C#CC1=CCCC1	
InChI=1S/C7H8/c1-2-7-5-3-4-6-7/h1,5H,3-4,6H2	InChI=1S/C7H8/c1-2-7-5-3-4-6-7/h1,5H,3-4,6H2
