11
gdb 454	7.85701	3.72703	2.64004	4.8739	42.52	-0.2632	0.052	0.3152	473.1926	0.087482	-322.47672	-322.471693	-322.470748	-322.505169	17.739	
O	-0.0006390022	-0.0136039414	 0.133161905	-0.385985
C	-0.0286172141	 1.1817834572	 0.057356492	 0.476923
N	-1.1100079373	 1.9945147595	-0.2229837045	-0.358039
C	-0.8201494052	 3.3794509959	 0.0957738923	-0.18332
C	 0.7166596206	 3.3455698644	-0.0118893669	-0.073705
O	 1.0706662957	 1.9799314563	 0.2330522368	-0.233525
H	-2.0241574993	 1.5953396624	-0.0851622434	 0.262773
H	-1.2672170888	 4.0740196789	-0.6205649138	 0.124421
H	-1.151914951	 3.6577886409	 1.1058228485	 0.116447
H	 1.053616142	 3.6255504175	-1.0163301377	 0.124497
H	 1.2180531095	 3.9759855783	 0.7242454515	 0.129513
186.853	194.221	491.4813	524.2181	689.1772	731.4939	771.7136	894.0652	922.3144	955.1686	1060.6284	1097.7066	1143.2102	1212.3949	1234.9123	1241.1358	1339.7928	1415.2195	1435.2383	1519.9832	1534.0988	1896.9263	3004.775	3043.7395	3084.0973	3120.0982	3655.3394
O=C1NCCO1	O=C1NCCO1	
InChI=1S/C3H5NO2/c5-3-4-1-2-6-3/h1-2H2,(H,4,5)	InChI=1S/C3H5NO2/c5-3-4-1-2-6-3/h1-2H2,(H,4,5)
