16
gdb 3229	5.23354	2.63399	2.29852	1.7787	63.83	-0.2014	0.0833	0.2846	648.5009	0.137183	-288.557016	-288.550883	-288.549938	-288.586398	24.787	
C	-0.0367285501	 1.5253118013	 0.0473013118	-0.50957
C	 0.0969657258	 0.0369479318	 0.0140322037	 0.348843
N	-0.8518369301	-0.8741633416	 0.7056422363	-0.376305
C	 0.6100068038	-0.9398135012	 0.994307999	-0.113263
C	 1.3076222258	-1.7569241457	-0.1308857241	-0.05242
C	 0.3440126241	-2.2069511544	-1.1965845296	-0.288719
C	 0.7696225023	-0.7632758394	-1.1516821181	-0.099067
H	 0.8990802233	 2.0097324683	-0.2533182801	 0.125531
H	-0.8229421632	 1.8700371847	-0.6355461949	 0.127868
H	-0.2870630476	 1.8759662426	 1.0547075456	 0.114909
H	-1.2753480611	-0.3384566644	 1.4635476779	 0.221334
H	 0.9850592206	-0.7966916025	 2.0001097248	 0.087423
H	 2.3128737239	-2.146795273	-0.0402515219	 0.086055
H	 0.7999701494	-2.7819027833	-1.9971015628	 0.102875
H	-0.6683362906	-2.4903325706	-0.9399080826	 0.140576
H	 1.3016506137	-0.2779759125	-1.9602556651	 0.083929
212.622	221.6968	289.2352	414.0172	437.5633	548.2092	620.9487	715.144	748.9303	803.0001	836.7676	863.0647	919.1277	921.1659	948.2073	977.6819	989.4387	1025.7482	1055.1022	1073.0345	1100.4181	1110.4313	1141.9262	1184.1517	1227.0868	1289.0066	1303.9864	1334.9841	1410.0649	1449.9068	1463.8575	1481.0409	1499.7161	3018.6841	3079.5913	3092.2771	3136.2667	3184.8302	3188.6599	3201.0843	3232.7045	3464.9667
CC12NC1C1CC21	C[C@]12N[C@H]1[C@H]1C[C@@H]21	
InChI=1S/C6H9N/c1-6-4-2-3(4)5(6)7-6/h3-5,7H,2H2,1H3	InChI=1S/C6H9N/c1-6-4-2-3(4)5(6)7-6/h3-5,7H,2H2,1H3/t3-,4+,5-,6+/m0/s1
