16
gdb 4842	4.42629	1.49628	1.1516	1.9716	69.81	-0.1735	0.0408	0.2143	1025.5811	0.131335	-379.937173	-379.929013	-379.928069	-379.970067	29.561	
C	-0.1863081286	 1.4418346602	 0.0892007951	-0.329071
N	-0.1237852213	 0.0630872324	-0.3895573037	-0.38524
C	-1.1893864616	-0.7785739255	-0.1178407763	 0.412927
C	-1.271004383	-2.1080912292	 0.1816252666	-0.295333
C	-2.6742541247	-2.4126862856	 0.2172493035	-0.169222
C	-3.34734651	-1.2652307567	-0.0367982549	 0.275826
N	-4.706809223	-0.9637626706	-0.0931064736	-0.601834
O	-2.424652166	-0.2382549389	-0.2497315548	-0.204993
H	 0.703053432	 1.9734392989	-0.2573560892	 0.123236
H	-1.0634185814	 1.9319452218	-0.3373357274	 0.148567
H	-0.2450372846	 1.5262185275	 1.1853758869	 0.11152
H	 0.754826545	-0.3886892529	-0.1787140581	 0.240317
H	-0.4452503714	-2.7812530466	 0.3484442888	 0.088802
H	-3.1325070673	-3.3686678205	 0.4157588162	 0.103612
H	-4.9654436776	-0.5111471853	-0.9644034328	 0.240947
H	-5.0078335265	-0.362565729	 0.6685725035	 0.239939
57.4514	138.0074	158.3761	182.5475	233.1911	341.7256	379.1272	487.0641	588.7281	609.641	668.7217	700.2843	738.5185	745.8207	786.5001	840.271	960.8878	981.7169	1028.9484	1072.0922	1148.4381	1151.8633	1178.154	1218.4608	1255.5618	1309.8242	1391.3084	1450.2353	1485.5065	1490.4454	1515.993	1637.7418	1658.8476	1695.5039	2984.3362	3093.9771	3137.7378	3251.7375	3266.7932	3484.04	3547.8567	3595.3747
CNC1=CC=C(N)O1	CNc1ccc(N)o1	
InChI=1S/C5H8N2O/c1-7-5-3-2-4(6)8-5/h2-3,7H,6H2,1H3	InChI=1S/C5H8N2O/c1-7-5-3-2-4(6)8-5/h2-3,7H,6H2,1H3
