17
gdb 1712	4.81693	1.96089	1.80862	2.7295	64.58	-0.2457	-0.021	0.2247	773.1958	0.147292	-309.723988	-309.716488	-309.715543	-309.755559	27.325	
C	-0.0598483066	 1.5959757085	 0.0163605768	-0.449574
C	-0.0066980667	 0.07303228	 0.0149356375	 0.241716
C	 1.1214996822	-0.529930965	-0.8956015035	-0.258571
C	 2.0158229233	-0.7245484041	 0.3551615452	-0.2061
C	 0.7564218677	-0.544607819	 1.2403934423	-0.25853
C	-1.3650352756	-0.5379661485	-0.2212501042	 0.118578
O	-2.3900522679	 0.0715500892	-0.3917580785	-0.254731
H	 0.933308346	 2.0224616629	 0.1881211332	 0.109158
H	-0.4359685464	 1.9721064114	-0.9394409793	 0.128102
H	-0.731504993	 1.9602003472	 0.7991228404	 0.128083
H	 0.8214659851	-1.4845196113	-1.3398196414	 0.104217
H	 1.4853850059	 0.1231137852	-1.692354676	 0.108693
H	 2.5520618076	-1.6720979922	 0.4403124493	 0.102753
H	 2.7351502315	 0.0879057034	 0.4836776821	 0.110112
H	 0.8334800269	 0.0968513964	 2.1214641769	 0.108697
H	 0.3280488816	-1.5043802177	 1.5468862363	 0.10422
H	-1.3581238017	-1.6554043765	-0.2281452772	 0.063176
80.5055	118.255	199.8859	263.8817	293.3786	359.1534	385.6297	469.3021	685.4924	749.535	776.2281	864.2161	870.7439	934.8524	947.144	951.2685	994.652	1003.0062	1075.9639	1166.0086	1181.9311	1217.4104	1218.3967	1262.0994	1277.4396	1284.3093	1330.575	1407.5277	1430.1392	1471.7819	1481.7335	1485.408	1491.8841	1505.5264	1824.2125	2835.2244	3039.3223	3046.9162	3050.9118	3067.035	3100.1311	3106.3212	3109.9625	3115.4359	3123.0464
CC1(CCC1)C=O	CC1(CCC1)C=O	
InChI=1S/C6H10O/c1-6(5-7)3-2-4-6/h5H,2-4H2,1H3	InChI=1S/C6H10O/c1-6(5-7)3-2-4-6/h5H,2-4H2,1H3
