9
gdb 2496	2.80766	2.71085	1.45743	1.6449	49.38	-0.312	-0.0892	0.2228	745.5458	0.053451	-338.247875	-338.240989	-338.240045	-338.279619	22.097	
O	-0.0123646174	-0.0121527973	 0.00161322	-0.192554
C	-0.0192140639	 1.1793011951	 0.0079521636	 0.179517
C	 1.3112228408	 2.0111677792	 0.0000197905	-0.354624
C	 1.3545609098	 2.8363706128	-1.2101505547	 0.291617
N	 1.3456808792	 3.4525821958	-2.1864096505	-0.280823
C	 1.3771080722	 2.8232254268	 1.2180504131	 0.291616
N	 1.3864336254	 3.4288444855	 2.2009125687	-0.280827
H	-0.9357134086	 1.7982943083	 0.0195237328	 0.145525
H	 2.1345457025	 1.2896446838	-0.0115179535	 0.200555
58.5376	133.63	180.375	200.9664	375.342	451.6182	479.3511	524.2138	582.1312	932.8085	939.7237	973.4568	1077.211	1200.9194	1304.0856	1399.3768	1860.6844	2367.1009	2372.6723	2970.3392	3077.8245
O=CC(C#N)C#N	O=CC(C#N)C#N	
InChI=1S/C4H2N2O/c5-1-4(2-6)3-7/h3-4H	InChI=1S/C4H2N2O/c5-1-4(2-6)3-7/h3-4H
