15
gdb 4137	5.54604	1.30508	1.26109	1.7254	66.31	-0.246	0.0093	0.2552	989.8258	0.117175	-399.668736	-399.661333	-399.660388	-399.700241	27.902	
C	-0.0809537874	 1.5430169909	 0.0184348264	-0.434331
C	-0.0243243305	 0.0260441334	 0.0053780107	 0.026202
C	 1.2258893453	-0.666050263	-0.6321326014	-0.059059
O	 2.0354883364	-0.1952022468	 0.5320541116	-0.311653
C	 0.7686892552	-0.7018916604	 1.140768122	-0.053429
C	 0.9073709032	-1.890583888	 0.2148079639	 0.535708
N	 0.8550417203	-3.1450122106	 0.2727959428	-0.318408
O	 1.153170623	-3.7294739125	-0.9780420469	-0.397423
H	 0.892619237	 1.9624997931	 0.2775633395	 0.143259
H	-0.3782100249	 1.9244708602	-0.9638106583	 0.122072
H	-0.8199443362	 1.8936544846	 0.7462078661	 0.12169
H	-0.9838128552	-0.4356620318	-0.2496010839	 0.090807
H	 1.6575270873	-0.5752106445	-1.6257937501	 0.11509
H	 0.6645489689	-0.6508222128	 2.222515734	 0.110535
H	 1.0926332276	-4.669396532	-0.7758329464	 0.308938
115.059	166.4262	224.2372	290.7252	307.2263	334.3231	408.9124	490.724	625.6987	714.6003	733.4949	746.3906	787.1725	798.8729	879.3279	953.7812	1016.8593	1057.405	1071.5575	1105.7669	1108.363	1144.5448	1157.0357	1210.045	1220.0351	1253.0125	1384.945	1403.1765	1414.4671	1492.5004	1503.8137	1835.9167	3041.3204	3062.5934	3100.9132	3141.6479	3152.6914	3161.6574	3816.8302
CC1C2OC1C2=NO	C[C@H]1[C@H]2O[C@@H]1C2=NO	
InChI=1S/C5H7NO2/c1-2-4-3(6-7)5(2)8-4/h2,4-5,7H,1H3	InChI=1S/C5H7NO2/c1-2-4-3(6-7)5(2)8-4/h2,4-5,7H,1H3/t2-,4+,5-
