13
gdb 2257	3.87018	3.10864	2.05454	3.1289	54.68	-0.2363	-0.0111	0.2253	632.6654	0.100868	-344.4365	-344.430125	-344.429181	-344.466541	23.807	
O	-0.0175880678	 1.4458318878	 0.0273754743	-0.445556
C	 0.0154564541	 0.0730507664	 0.0705632527	 0.286922
C	-0.301034623	-0.7868206319	-1.1511243906	-0.33995
C	-1.1708502172	-0.9265276303	 0.0539231496	-0.099707
C	-0.4671183119	-1.8383993024	 1.0685695391	-0.350935
C	 0.6643719526	-0.7701302964	 1.1368504978	 0.346194
O	 1.5707784368	-0.5846995997	 1.8968874223	-0.315856
H	 0.7123857997	 1.7582325519	-0.5185048029	 0.298486
H	-0.7112872833	-0.1951554582	-1.9638535469	 0.128021
H	 0.3527174383	-1.5980322293	-1.4611951814	 0.121054
H	-2.2216782704	-0.6721061015	 0.0577910619	 0.116108
H	-0.9673054642	-1.9131901826	 2.0381810235	 0.135184
H	-0.1949924336	-2.8391030937	 0.7211767407	 0.120036
129.5189	199.0816	274.039	327.8539	428.7846	481.4398	568.7991	653.4524	684.4046	790.0931	845.2461	890.5089	944.4372	970.8605	1012.1512	1017.9592	1071.6246	1082.5165	1142.3706	1197.7289	1232.6603	1279.9675	1301.8915	1406.1805	1457.4823	1496.1242	1882.7351	3058.4685	3110.9509	3114.5357	3203.3298	3219.0253	3799.7889
OC12CC1CC2=O	O[C@]12C[C@H]1CC2=O	
InChI=1S/C5H6O2/c6-4-1-3-2-5(3,4)7/h3,7H,1-2H2	InChI=1S/C5H6O2/c6-4-1-3-2-5(3,4)7/h3,7H,1-2H2/t3-,5-/m1/s1
