11
gdb 4253	3.96172	2.11789	1.3801	2.9145	56.37	-0.2726	-0.0571	0.2155	796.8281	0.073048	-434.591172	-434.585027	-434.584083	-434.621848	22.407	
N	-0.0689538411	 1.3105906936	 0.2493604872	-0.507378
C	-0.0989114748	 0.0792995273	-0.0178181201	 0.404731
O	 1.0543722621	-0.5687315713	-0.4985832876	-0.26185
C	 1.1382970538	-1.8810358876	-0.8171943256	 0.4836
O	 2.1406487508	-2.3720062397	-1.2183206608	-0.326561
O	 0.0055290539	-2.6347595507	-0.6562828147	-0.219542
C	-1.145500963	-2.0686564586	-0.1945321872	 0.075339
C	-1.2530318706	-0.7803840657	 0.1253535104	-0.20285
H	 0.8542397948	 1.7068310241	 0.069538871	 0.242996
H	-1.9382567999	-2.8019114994	-0.1281045125	 0.16199
H	-2.176124246	-0.355036552	 0.48924432	 0.149524
119.8335	126.428	372.4231	376.5656	504.585	537.9585	576.7756	702.3114	760.1706	763.9272	823.9967	893.3922	897.4795	968.6566	979.7013	1020.4579	1104.8848	1138.6465	1265.7197	1339.4854	1417.2461	1697.0027	1768.5023	1918.2683	3233.4266	3261.3548	3495.2494
N=C1OC(=O)OC=C1	[NH]C1=C[CH]OC(=O)O1	
InChI=1S/C4H3NO3/c5-3-1-2-7-4(6)8-3/h1-2,5H	InChI=1S/C4H3NO3/c5-3-1-2-7-4(6)8-3/h1-2,5H
