15
gdb 1870	5.03875	2.28628	1.86658	4.045	57.	-0.2446	0.0632	0.3078	707.6316	0.127728	-341.892484	-341.88592	-341.884976	-341.922752	24.681	
C	 0.1214243319	 1.5267373102	 0.0539269529	-0.393878
C	-0.0629265277	 0.0088148526	-0.0442671119	 0.039307
C	 0.7161085138	-0.62190915	-1.2286700948	-0.170263
N	 1.9769498824	-0.9723593837	-0.595294408	-0.336645
C	 1.8103610485	-1.1684092885	 0.7710609255	 0.426939
O	 2.6188920573	-1.6344307611	 1.5414565137	-0.409586
N	 0.5293161871	-0.719457449	 1.074479623	-0.337576
H	 1.1841982193	 1.7873650219	 0.0648924251	 0.137365
H	-0.352201926	 2.0293726459	-0.7959602097	 0.118636
H	-0.3372990499	 1.9155225012	 0.9690906485	 0.116602
H	-1.1295158236	-0.2247064871	-0.1269926024	 0.08898
H	 0.1840274583	-1.5013728836	-1.6180793189	 0.107577
H	 0.8536073596	 0.0902660346	-2.0479019867	 0.112846
H	 2.6500323517	-1.5598226845	-1.0604701207	 0.252066
H	 0.370925347	-0.4185287087	 2.0236757643	 0.24763
126.6593	191.9407	250.1963	338.1977	430.7146	471.9571	521.9555	540.7119	705.9375	742.2055	768.338	828.3377	951.519	969.2313	981.1238	1043.0729	1085.8225	1142.7155	1153.4309	1227.9817	1263.9073	1288.1501	1363.5769	1388.6975	1406.8029	1419.2209	1441.5279	1494.354	1496.109	1527.2518	1851.5867	2998.4511	3032.8724	3046.7135	3073.5732	3102.1156	3116.0938	3634.9428	3648.3244
CC1CNC(=O)N1	C[C@H]1CNC(=O)N1	
InChI=1S/C4H8N2O/c1-3-2-5-4(7)6-3/h3H,2H2,1H3,(H2,5,6,7)	InChI=1S/C4H8N2O/c1-3-2-5-4(7)6-3/h3H,2H2,1H3,(H2,5,6,7)/t3-/m0/s1
