15
gdb 4125	3.81967	1.65755	1.28912	1.8075	65.6	-0.2475	0.0022	0.2497	935.9036	0.116809	-399.718672	-399.710992	-399.710048	-399.750492	28.589	
C	-0.0779572629	 1.5512911869	 0.0375463303	-0.511871
C	 0.1437212639	 0.0782233601	-0.0234376513	 0.32161
O	-0.7559036983	-0.7968291573	 0.7045573344	-0.277522
C	 0.6436144178	-0.9344066651	 0.9427062536	-0.039933
C	 1.1979530699	-1.8394920436	-0.1786685356	-0.350284
C	 0.6836551793	-0.7674751776	-1.1448264227	 0.401982
N	 0.7831387657	-0.5063218924	-2.3781506873	-0.258142
O	 1.430061763	-1.5446863011	-3.0693584653	-0.386443
H	 0.8102133231	 2.0871934229	-0.3095747729	 0.135451
H	-0.9169187012	 1.8400986917	-0.6035586568	 0.144298
H	-0.3051605313	 1.8571998347	 1.0617541653	 0.135284
H	 1.0027406898	-0.8072226366	 1.9571069178	 0.11257
H	 2.2885016745	-1.9213642011	-0.2080997873	 0.130347
H	 0.748736845	-2.8324337925	-0.2454906949	 0.134032
H	 1.4386201916	-1.212857039	-3.9737567774	 0.308622
115.7038	166.5543	189.8838	231.0815	293.4407	359.9964	437.1223	455.0099	513.3468	578.901	661.6385	722.106	793.1862	849.0182	903.6907	946.8947	983.5759	1022.8161	1043.2266	1076.4425	1094.1587	1136.7396	1205.0785	1253.9654	1270.8715	1390.9644	1408.4308	1447.3977	1469.7306	1482.7454	1491.3149	1792.961	3044.5437	3067.1411	3110.4408	3125.0122	3129.3812	3193.6186	3814.9412
CC12OC1CC2=NO	C[C@]12O[C@H]1CC2=NO	
InChI=1S/C5H7NO2/c1-5-3(6-7)2-4(5)8-5/h4,7H,2H2,1H3	InChI=1S/C5H7NO2/c1-5-3(6-7)2-4(5)8-5/h4,7H,2H2,1H3/t4-,5+/m0/s1
