23
gdb 2548	2.15815	2.15629	1.20552	0.0428	77.99	-0.2984	0.0907	0.3891	1106.1305	0.216646	-276.202311	-276.192573	-276.191629	-276.236685	34.96	
C	 0.0915672975	 1.9884593023	-0.3408173338	-0.387649
C	 0.1007453615	 0.4832014479	-0.052779376	-0.179603
C	 0.7456876119	-0.3812652121	-1.1565797494	 0.078196
C	 2.2805195314	-0.2219489749	-1.1634190766	-0.179552
C	 2.9675875331	-0.687845715	-2.4517072116	-0.387663
C	 0.3402965733	-1.863039493	-1.0108902374	-0.179557
C	-1.105972397	-2.1743530114	-1.4114073279	-0.387634
H	 1.1010230273	 2.3937401022	-0.4625351748	 0.117045
H	-0.4646624629	 2.2085175187	-1.2590466854	 0.112866
H	-0.3848055061	 2.5412948592	 0.4752249521	 0.110033
H	 0.6237962426	 0.2908112565	 0.89453635	 0.090154
H	-0.933764046	 0.1577655304	 0.1059277894	 0.091554
H	 0.3664697181	-0.0237828562	-2.1272014767	 0.058546
H	 2.5377140257	 0.830606405	-0.9984608738	 0.091548
H	 2.6941357665	-0.7693924038	-0.304715457	 0.090131
H	 2.7905844218	-1.748455093	-2.6562237795	 0.117046
H	 2.6054077442	-0.1207023421	-3.3166188196	 0.112896
H	 4.0512673645	-0.5443928292	-2.3922460927	 0.11004
H	 1.0068212367	-2.4841531764	-1.6202309958	 0.091505
H	 0.5109540974	-2.1728315285	 0.0297157734	 0.090139
H	-1.8322034226	-1.6206661084	-0.80787843	 0.117036
H	-1.2860976361	-1.9172294427	-2.4613555318	 0.112881
H	-1.3263926528	-3.2397165857	-1.2892662952	 0.11004
75.2788	88.792	94.4006	193.5054	205.9836	211.2636	274.4876	278.3119	293.6027	442.423	449.4592	449.949	739.1108	772.5323	774.8992	850.8014	914.7531	915.8317	1016.0513	1018.3081	1028.1788	1053.5396	1056.5425	1056.7323	1172.7809	1174.0194	1190.9419	1275.6375	1277.4535	1315.2764	1335.4593	1337.8079	1371.9151	1391.0841	1391.8015	1413.3146	1414.63	1415.6737	1480.2095	1487.753	1488.1703	1498.5124	1502.1319	1502.5461	1507.2935	1507.6126	1510.2098	2976.3999	3009.7572	3010.1316	3020.187	3031.9234	3032.0069	3032.0796	3052.9921	3054.5508	3057.8484	3096.2553	3096.4989	3097.4354	3101.3132	3105.0297	3105.36
CCC(CC)CC	CCC(CC)CC	
InChI=1S/C7H16/c1-4-7(5-2)6-3/h7H,4-6H2,1-3H3	InChI=1S/C7H16/c1-4-7(5-2)6-3/h7H,4-6H2,1-3H3
