12
gdb 3883	3.82442	3.54776	1.85265	0.9445	52.2	-0.1973	0.0168	0.214	634.2118	0.093198	-352.874613	-352.867984	-352.867039	-352.904819	23.877	
N	-0.0372970625	 1.4160923713	 0.1336649243	-0.604126
C	 0.0135500687	 0.0243923106	 0.0288258255	 0.281083
N	-1.0533256921	-0.7678855935	 0.0486811771	-0.274876
N	-0.5241575711	-1.991632889	-0.0064774928	-0.100772
N	 0.8074495398	-2.0585161962	-0.0607110085	-0.274856
C	 1.1757750207	-0.7817216041	-0.0392426917	 0.281017
N	 2.4971886876	-0.341689847	-0.1426223554	-0.604134
H	 0.5381067145	 1.8703751901	-0.5668941524	 0.251614
H	-0.9890776107	 1.7552391047	 0.0648782646	 0.253687
H	-1.0965071508	-2.8167168107	-0.0075868677	 0.286071
H	 3.1481592051	-1.1145270901	-0.0747720498	 0.253685
H	 2.7207983509	 0.3551388139	 0.5592900568	 0.251609
152.4341	216.7651	236.5202	284.1878	336.9033	382.8183	482.1758	660.4245	682.8798	725.1389	784.1873	796.7325	836.6972	975.1847	1107.1131	1118.4296	1188.4593	1260.1941	1311.4753	1440.0693	1471.7541	1594.6273	1596.3705	1644.494	1653.0667	3517.481	3518.9384	3614.6387	3615.8902	3703.0516
NC1=NNN=C1N	Nc1n[nH]nc1N	
InChI=1S/C2H5N5/c3-1-2(4)6-7-5-1/h(H5,3,4,5,6,7)	InChI=1S/C2H5N5/c3-1-2(4)6-7-5-1/h(H5,3,4,5,6,7)
