21
gdb 1995	5.24862	1.356	1.24792	0.0808	74.76	-0.2696	0.0861	0.3557	1063.9931	0.194216	-274.982322	-274.973806	-274.972862	-275.015169	31.65	
C	 0.0125701492	 1.4535324244	 0.2903076478	-0.382097
C	 0.0119679925	-0.038116455	-0.0719421154	 0.056
C	-1.4188062126	-0.5928534777	-0.0718015794	-0.388101
C	 0.6957832157	-0.3112644528	-1.4262662945	-0.195618
C	 2.1703418941	 0.0326160833	-1.480565267	 0.029737
C	 3.1963178522	-0.9326014654	-0.9385918469	-0.254859
C	 3.0877909852	-0.7002817924	-2.4263327865	-0.277147
H	 1.0266305983	 1.8565381389	 0.3666874053	 0.113141
H	-0.5249038078	 2.0392561575	-0.4658353875	 0.108553
H	-0.4827306336	 1.6229130627	 1.2522254837	 0.107959
H	 0.5843690218	-0.5729985636	 0.6990912076	 0.072679
H	-2.0312341009	-0.0970984959	-0.8349178959	 0.109884
H	-1.4318454647	-1.6674396839	-0.2834750253	 0.106946
H	-1.9064977472	-0.4354177255	 0.8960153504	 0.107268
H	 0.5779106299	-1.3757004102	-1.6708350003	 0.083838
H	 0.1603082069	 0.2404347191	-2.2131063127	 0.089051
H	 2.4004324671	 1.0851184644	-1.3398215813	 0.081838
H	 4.060607821	-0.5377191228	-0.4158656001	 0.107728
H	 2.8410192439	-1.8817665391	-0.5494183366	 0.107471
H	 2.6600083948	-1.4929207911	-3.0319526877	 0.107807
H	 3.8767496342	-0.1435778048	-2.9201385778	 0.107921
63.3353	101.0357	168.0756	221.5175	242.3995	307.0211	343.9648	387.4373	435.4116	459.0856	773.0973	802.4628	812.357	841.5752	887.9108	928.0236	935.2019	940.5754	967.4358	1002.5288	1051.1546	1074.9276	1077.1584	1139.7488	1153.49	1189.19	1199.5619	1202.1175	1230.732	1279.5194	1308.4782	1363.7411	1374.4921	1400.1304	1415.4589	1424.6227	1470.1147	1478.9687	1488.8464	1494.518	1504.6848	1509.3862	1512.1097	2994.6896	3005.2484	3021.6194	3027.0996	3036.1577	3085.451	3091.4863	3096.4873	3105.5109	3126.3033	3131.1075	3143.7654	3203.4537	3218.9991
CC(C)CC1CC1	CC(C)CC1CC1	
InChI=1S/C7H14/c1-6(2)5-7-3-4-7/h6-7H,3-5H2,1-2H3	InChI=1S/C7H14/c1-6(2)5-7-3-4-7/h6-7H,3-5H2,1-2H3
