13
gdb 1037	7.59148	2.1449	1.68999	3.1203	57.57	-0.1875	0.0308	0.2183	711.5285	0.101895	-340.64862	-340.641626	-340.640682	-340.680619	23.906	
C	-0.0219830668	 1.4179251314	 0.0094690676	-0.315906
N	 0.0233723496	-0.0342031908	 0.0040336435	-0.384003
C	-1.0737678259	-0.6575979189	 0.0099887083	 0.520806
N	-1.2540525665	-2.0277729708	 0.0062966555	-0.370338
C	-2.6129695186	-2.3237842483	 0.0173933461	-0.092714
C	-3.2614649018	-1.1547940671	 0.0256706592	-0.041481
O	-2.3488065086	-0.1128750748	 0.0211957717	-0.221033
H	 1.0003270441	 1.8048531733	 0.0005554155	 0.113822
H	-0.5447489107	 1.8266105615	-0.8674473483	 0.110685
H	-0.5268167588	 1.8203092739	 0.8997219775	 0.110662
H	-0.484918528	-2.6715807036	 0.002956434	 0.27408
H	-2.9862525108	-3.3330894146	 0.0173652508	 0.148746
H	-4.3029739872	-0.8887360111	 0.0342616486	 0.146674
28.1255	104.5415	206.2372	231.4775	325.611	516.1575	582.1018	676.7319	710.2832	736.7449	784.444	883.1737	905.9679	1043.9456	1072.6053	1123.1887	1123.5547	1142.1807	1161.7971	1221.3968	1381.3303	1419.0047	1449.243	1491.9091	1501.5216	1661.5135	1812.9373	2986.0589	3029.5189	3096.516	3287.0828	3315.0676	3714.8956
CN=C1NC=CO1	CN=c1[nH]cco1	
InChI=1S/C4H6N2O/c1-5-4-6-2-3-7-4/h2-3H,1H3,(H,5,6)	InChI=1S/C4H6N2O/c1-5-4-6-2-3-7-4/h2-3H,1H3,(H,5,6)
