15
gdb 2656	18.06148	0.77455	0.75311	0.1173	84.47	-0.2254	0.0015	0.2269	1516.5701	0.123048	-271.351786	-271.343016	-271.342072	-271.387292	28.915	
C	-0.0460390003	 1.5563607455	 0.0582550011	-0.365529
C	 0.0105517742	 0.018147755	-0.0129664681	-0.342859
C	 0.6879426694	-0.4753829427	-1.2032105678	 0.30091
C	 1.2542504816	-0.8693811673	-2.1986211906	-0.23453
C	 1.8902966128	-1.3122971951	-3.3166048109	-0.200275
C	 2.45631121	-1.7059577069	-4.3115027928	 0.249124
C	 3.1352716521	-2.1782685622	-5.5049267466	-0.51789
H	 0.960873916	 1.98177501	 0.0658662003	 0.131584
H	-0.5792836245	 1.9653827813	-0.803870248	 0.131584
H	-0.5633332959	 1.8740980591	 0.9683080617	 0.116378
H	 0.5168105264	-0.3721086823	 0.8798743919	 0.134458
H	-1.0090318828	-0.3883485617	 0.0182218067	 0.134458
H	 3.1648761363	-3.2734186561	-5.53775027	 0.154338
H	 2.6289380327	-1.8326512744	-6.4134845912	 0.154125
H	 4.1693821198	-1.8170916624	-5.5432564927	 0.154125
7.1676	73.3152	92.3972	175.0845	205.7645	280.279	322.498	387.4862	461.3496	545.5599	551.0838	595.3943	784.0053	888.6189	1008.2915	1048.4092	1048.7254	1080.8705	1101.2714	1280.7588	1282.559	1352.6499	1407.9945	1413.6262	1470.6412	1472.849	1473.0003	1494.2484	1505.1566	2278.2703	2387.043	3014.4803	3021.7442	3041.8037	3045.5339	3082.9042	3082.9812	3119.6269	3126.4383	7.134	73.3131	92.3945	175.0842	205.7661	280.2811	322.5001	387.4879	461.3499	545.5612	551.0848	595.3944	784.0054	888.6189	1008.2915	1048.41	1048.7262	1080.8702	1101.2713	1280.7585	1282.5584	1352.6498	1407.9941	1413.6263	1470.6406	1472.8496	1473.001	1494.2477	1505.1561	2278.2708	2387.0432	3014.4803	3021.7441	3041.8037	3045.5339	3082.9041	3082.9811	3119.6269	3126.4383
CCC#CC#CC	CCC#CC#CC	
InChI=1S/C7H8/c1-3-5-7-6-4-2/h3H2,1-2H3	InChI=1S/C7H8/c1-3-5-7-6-4-2/h3H2,1-2H3
