12
gdb 1939	8.74402	1.55131	1.43631	2.2107	55.56	-0.2676	-0.0438	0.2238	791.5046	0.089595	-323.398064	-323.391666	-323.390722	-323.428819	22.736	
O	-0.0013923613	 0.0521738291	-0.2263011354	-0.269249
C	-0.0141378524	 1.220254384	 0.0154979898	 0.404305
C	-1.1367803718	 2.2391019757	 0.2795084488	-0.349595
C	-0.0318921785	 3.2454400379	 0.7596004874	-0.148388
C	 1.0868785556	 2.26951711	 0.2497851762	-0.349595
C	-0.057917246	 4.5722352835	 0.1702214948	 0.270737
N	-0.0787468053	 5.6221295543	-0.3135784827	-0.317155
H	-1.6335887237	 2.5518132096	-0.6433792865	 0.160788
H	-1.8948744656	 1.9521834808	 1.0108950012	 0.149551
H	-0.0185882362	 3.3363603776	 1.8478412656	 0.138262
H	 1.8717993393	 2.0036995488	 0.9605566507	 0.149551
H	 1.5501215859	 2.5953605085	-0.6859281398	 0.160788
57.5557	175.0733	237.0392	408.3782	448.4708	511.1727	556.0699	636.8774	676.5842	740.3444	904.1622	920.3234	1000.9869	1030.0369	1082.4515	1092.921	1183.4332	1198.1074	1235.0044	1235.1826	1347.8821	1427.6174	1445.7576	1910.0011	2358.0149	3071.2195	3075.4145	3091.0608	3134.8486	3135.4486
O=C1CC(C1)C#N	O=C1CC(C1)C#N	
InChI=1S/C5H5NO/c6-3-4-1-5(7)2-4/h4H,1-2H2	InChI=1S/C5H5NO/c6-3-4-1-5(7)2-4/h4H,1-2H2
