12
gdb 1597	3.98481	2.34624	1.57705	4.0183	52.23	-0.2601	0.0068	0.2669	735.0894	0.088374	-360.505528	-360.498134	-360.49719	-360.53703	26.775	
N	-0.084682248	 1.2581609638	 0.0317260736	-0.515992
C	 0.0247581629	-0.0812921076	-0.1033347111	 0.391787
O	 1.0463472771	-0.6682907951	-0.4094969985	-0.370272
C	-1.2843541412	-0.9013709612	 0.0786386729	-0.108266
O	-0.9579842615	-2.2628039364	 0.0996818364	-0.417462
C	-2.0216917821	-0.4847822572	 1.2740950944	 0.313957
C	-2.6330037966	-0.1094153459	 2.2387290869	-0.4691
H	 0.7553647706	 1.8119206306	-0.0212389022	 0.271902
H	-0.8930386362	 1.6507202498	 0.4862709587	 0.273047
H	-1.9088944646	-0.6705208131	-0.8030785189	 0.124011
H	-0.0102483423	-2.2818863624	-0.1262290982	 0.299042
H	-3.1765878281	 0.1987549146	 3.0979556461	 0.207345
60.2623	148.702	235.5485	316.7659	385.9313	411.8435	463.0654	480.8419	535.6498	573.3246	619.5111	633.3082	682.9764	711.0294	875.1342	975.4581	1107.0186	1142.3385	1241.6472	1337.3866	1368.4509	1451.0752	1619.7732	1802.6805	2232.2562	2943.5356	3499.976	3589.9753	3627.5013	3718.6708
NC(=O)C(O)C#C	NC(=O)[C@@H](O)C#C	
InChI=1S/C4H5NO2/c1-2-3(6)4(5)7/h1,3,6H,(H2,5,7)	InChI=1S/C4H5NO2/c1-2-3(6)4(5)7/h1,3,6H,(H2,5,7)/t3-/m0/s1
