14
gdb 3257	6.41807	2.33187	2.13236	2.422	57.19	-0.2378	0.0753	0.3132	639.7422	0.113892	-324.496997	-324.491289	-324.490345	-324.526281	22.153	
C	-0.048096605	 1.5144877236	-0.0169403207	-0.271307
O	 1.1337786717	 0.6949391919	 0.0167651774	-0.27065
C	-0.1234530029	 0.053114326	-0.0058607127	 0.455512
C	-0.5201498167	-0.9839352038	 1.0491838446	-0.25588
N	-0.8336853031	-1.9993639635	-0.0263232903	-0.121882
C	-1.8997226816	-1.3959106116	-0.8421942069	-0.238073
C	-0.5110540307	-0.9408314074	-1.0731142317	-0.127277
H	-0.2490924334	 2.0757618479	 0.8946354847	 0.118122
H	-0.2111889205	 2.0596603808	-0.9457331543	 0.118376
H	 0.3388319233	-1.3112304971	 1.6388515398	 0.132847
H	-1.3638908532	-0.7614400697	 1.7106277658	 0.108538
H	-2.3295158676	-2.087473228	-1.5604910544	 0.127284
H	-2.6164793318	-0.7260850852	-0.3702282311	 0.112863
H	 0.0602273615	-1.1616396836	-1.9683240401	 0.111527
151.9342	285.2043	347.2573	430.0482	484.6061	561.7802	744.4083	785.1852	833.7319	855.1554	874.9207	952.4999	970.3325	995.6622	1044.9875	1089.5759	1111.2296	1116.8538	1125.7949	1160.7135	1181.0451	1199.8234	1231.002	1273.8271	1324.4661	1448.2969	1482.8435	1502.0004	1538.8186	3048.699	3081.3095	3099.1469	3119.6067	3168.8471	3175.1925	3195.8044
C1OC11CN2CC12	C1O[C@]21CN1C[C@@H]21	
InChI=1S/C5H7NO/c1-4-5(3-7-5)2-6(1)4/h4H,1-3H2	InChI=1S/C5H7NO/c1-4-5(3-7-5)2-6(1)4/h4H,1-3H2/t4-,5-,6?/m0/s1
