11
gdb 195	9.03471	3.7	2.63327	1.5774	48.3	-0.1844	0.0397	0.2241	472.7151	0.086472	-285.313612	-285.308395	-285.307451	-285.341898	19.374	
N	 0.0858048027	 1.3721077925	 0.1782977321	-0.591461
C	-0.0669354776	-0.0026083729	 0.0522043128	 0.383535
C	-1.1488933755	-0.8314009072	 0.0026994357	-0.268092
C	-0.6113298894	-2.1649097249	-0.0271532828	-0.151175
C	 0.7359948569	-2.0439149265	 0.0006541485	-0.033409
O	 1.0848604964	-0.7129665788	 0.0523979422	-0.172148
H	 0.9273441168	 1.7109274719	-0.2710933093	 0.254767
H	-0.7220473758	 1.8836401313	-0.1487347053	 0.254763
H	-2.1861088501	-0.5382827181	-0.0104121231	 0.092969
H	-1.1692446499	-3.0875084325	-0.0694905217	 0.103816
H	 1.5594150655	-2.7364409748	-0.0105854791	 0.126435
175.0737	282.9198	396.3317	605.3969	646.0864	670.8266	692.173	737.9148	761.8541	835.3707	899.6301	963.3009	1022.2885	1073.2075	1123.7973	1179.4632	1266.6775	1308.3789	1457.1466	1565.9329	1622.3038	1667.8448	3250.8845	3265.1202	3297.5031	3544.1951	3645.3827
NC1=CC=CO1	Nc1ccco1	
InChI=1S/C4H5NO/c5-4-2-1-3-6-4/h1-3H,5H2	InChI=1S/C4H5NO/c5-4-2-1-3-6-4/h1-3H,5H2
