17
gdb 3598	5.69199	1.66818	1.47104	1.8464	65.08	-0.2529	0.0889	0.3418	878.4089	0.147714	-309.687698	-309.680332	-309.679388	-309.719362	27.006	
C	-0.0818585956	 1.5154019691	-0.1710665339	-0.418507
C	-0.0712763229	 0.0355492691	 0.1153873349	 0.068774
O	 1.1762776059	-0.6565567712	-0.0218416668	-0.268694
C	 0.5771907581	-0.5923281346	 1.279892169	 0.066054
C	 1.3118632551	 0.1398090014	 2.3498823026	-0.003796
C	 0.828834625	 0.0248383574	 3.7778518035	-0.269163
C	 2.1104368302	-0.6464217542	 3.3636899222	-0.264623
H	 0.7713440298	 2.0245586559	 0.2813551919	 0.127453
H	-0.0444410953	 1.6904795864	-1.2514433225	 0.128746
H	-1.0028222247	 1.9703752992	 0.2097043611	 0.121292
H	-0.9151840649	-0.5065610972	-0.3188710903	 0.083374
H	 0.1614369865	-1.5471591223	 1.6152872942	 0.07907
H	 1.7282376167	 1.0954313046	 2.0522641508	 0.087835
H	 0.8819072511	 0.9073631013	 4.4050861885	 0.115363
H	-0.034630244	-0.603658712	 3.9706926399	 0.113618
H	 2.1125335101	-1.7276352452	 3.2733543015	 0.117277
H	 3.0495300089	-0.2271414676	 3.7063496834	 0.115927
66.2747	142.9081	186.009	225.9916	308.0949	396.3449	448.3659	545.7537	759.2478	770.2453	826.6498	829.1666	890.2662	925.3446	956.2627	992.4551	1013.1276	1062.2801	1078.5621	1097.5828	1126.1197	1154.3219	1175.2321	1198.2482	1216.8245	1226.5148	1304.2269	1333.1139	1408.1759	1428.2283	1469.9008	1474.2802	1491.1759	1500.8518	1523.5562	3038.6963	3059.5202	3076.4566	3098.7722	3132.1061	3132.9949	3136.533	3174.8278	3210.841	3226.3128
CC1OC1C1CC1	C[C@H]1O[C@H]1C1CC1	
InChI=1S/C6H10O/c1-4-6(7-4)5-2-3-5/h4-6H,2-3H2,1H3	InChI=1S/C6H10O/c1-4-6(7-4)5-2-3-5/h4-6H,2-3H2,1H3/t4-,6-/m1/s1
