13
gdb 4512	3.64953	1.88113	1.25154	1.2754	57.12	-0.1865	0.0395	0.226	894.3733	0.097292	-431.948407	-431.94115	-431.940206	-431.979466	27.594	
N	-0.0054809859	 1.4124649793	 0.0654927671	-0.605244
C	-0.073850289	 0.0336063613	-0.0006822075	 0.183277
C	-1.1091521057	-0.8424918883	-0.04075408	 0.270857
N	-2.4705750796	-0.5836214478	-0.0875483245	-0.596404
N	-0.6383355805	-2.1525527899	-0.1084772703	-0.433033
C	 0.6490818668	-2.0005207882	-0.1152458872	 0.475234
O	 1.5721926908	-2.9608532914	-0.1619145939	-0.401868
O	 1.1134121	-0.7612671817	-0.0651829359	-0.202701
H	 0.4971129447	 1.7655707115	 0.8730787421	 0.244156
H	 0.3618598945	 1.8561032578	-0.7704453375	 0.245267
H	-2.7015664914	 0.3422360576	 0.2467931492	 0.251499
H	-3.0163356142	-1.2979793392	 0.3752173455	 0.250896
H	 1.0924223794	-3.7981413712	-0.2025874072	 0.318064
190.0851	228.7232	248.8025	302.1119	311.2702	343.0401	406.6578	449.6555	565.6114	638.8906	650.1274	672.6699	730.9973	741.8158	771.049	837.2523	1010.7073	1067.1211	1105.1179	1211.2535	1218.8208	1327.5256	1421.9392	1514.2903	1626.0479	1644.5811	1664.9856	1765.0669	3486.7531	3548.028	3549.7223	3650.6796	3805.0279
NC1=C(N)N=C(O)O1	Nc1c(N)nc(O)o1	
InChI=1S/C3H5N3O2/c4-1-2(5)8-3(7)6-1/h4-5H2,(H,6,7)	InChI=1S/C3H5N3O2/c4-1-2(5)8-3(7)6-1/h4-5H2,(H,6,7)
