10
gdb 758	9.71187	3.64488	2.66238	5.383	44.26	-0.2234	0.0126	0.236	454.6522	0.075741	-297.520999	-297.515908	-297.514964	-297.549226	18.253	
N	 0.0900133951	 1.4143404295	 0.1621276232	-0.601469
C	-0.0240762673	 0.0330628975	 0.0345048197	 0.33937
C	-1.0977410345	-0.83096749	-0.0230545426	-0.122273
N	-0.6269137856	-2.1105190381	-0.0566776092	-0.177295
N	 0.6680701694	-2.1022168362	-0.0303861643	-0.125176
N	 1.0477211667	-0.7951859862	 0.0332674309	-0.218054
H	 0.7509941789	 1.8328996415	-0.4813885665	 0.256009
H	-0.8043450251	 1.877255595	 0.0718751964	 0.26228
H	-2.1519230355	-0.6075617081	-0.0436982062	 0.111177
H	 2.0248874379	-0.563467295	 0.1080415686	 0.275432
179.7444	301.8094	372.6935	517.9481	663.9897	699.0963	721.412	754.0706	803.8175	991.3132	1029.1372	1070.4644	1105.5748	1145.9418	1266.1808	1356.0252	1395.4519	1482.3456	1629.4673	1663.7034	3269.3914	3535.6219	3629.9867	3661.3276
NC1=CN=NN1	Nc1cnn[nH]1	
InChI=1S/C2H4N4/c3-2-1-4-6-5-2/h1H,(H3,3,4,5,6)	InChI=1S/C2H4N4/c3-2-1-4-6-5-2/h1H,(H3,3,4,5,6)
