9
gdb 1372	7.35474	1.55737	1.29328	2.7129	48.09	-0.3102	-0.0914	0.2188	812.3984	0.053821	-375.394844	-375.38817	-375.387226	-375.426275	21.512	
N	-0.0116555631	 1.4167650949	-0.1630360764	-0.486506
C	-0.0036842142	 0.1558441858	-0.0986594621	 0.343185
O	-1.1248240144	-0.6083093152	-0.1830756033	-0.202855
C	-2.3614298856	-0.0153611185	 0.0617928477	 0.184007
O	-3.3588733983	-0.6197275066	-0.1458127575	-0.224421
C	 1.1764276607	-0.6729073891	 0.0483376402	 0.266553
N	 2.1555178764	-1.2754775313	 0.1652708725	-0.301245
H	 0.9238318305	 1.807905061	-0.0744083852	 0.268087
H	-2.2643505222	 1.0003382291	 0.4623556241	 0.153195
77.6131	108.4806	162.1989	284.0672	318.6584	496.9012	530.6546	650.4133	730.4195	875.9904	923.5535	1029.5599	1038.1693	1082.0155	1333.9952	1398.4109	1711.348	1891.506	2358.4015	3090.5787	3531.8088
N=C(OC=O)C#N	[NH][C](OC=O)C#N	
InChI=1S/C3H2N2O2/c4-1-3(5)7-2-6/h2,5H	InChI=1S/C3H2N2O2/c4-1-3(5)7-2-6/h2,5H
