21
gdb 1359	2.97117	2.21615	1.91778	0.0569	74.93	-0.2497	0.0827	0.3324	856.5319	0.192745	-274.986857	-274.977725	-274.976781	-275.019484	33.607	
C	-0.2124014203	 1.0086843291	-1.8242288356	-0.412009
C	-0.0305561007	-0.1854096301	-0.9103599952	-0.047774
C	 1.3206255983	-0.6232851581	-0.369803021	-0.047785
C	 2.6159634071	 0.0923353084	-0.6924696472	-0.411975
C	 0.2645252481	-0.0765617336	 0.576566608	 0.325172
C	 0.4426212884	 1.2812361659	 1.2320493899	-0.451728
C	-0.4244246514	-1.0799196494	 1.4856879057	-0.444991
H	 0.4665511777	 1.8321841293	-1.5920497335	 0.113587
H	-0.0368153086	 0.7279068725	-2.8690223433	 0.114429
H	-1.2338935124	 1.4000901469	-1.756983964	 0.114607
H	-0.6961984662	-1.0071129342	-1.1689880015	 0.072373
H	 1.4500325964	-1.7025896228	-0.3104789209	 0.072369
H	 2.4960220271	 1.1743409542	-0.7814011034	 0.113575
H	 3.3667959645	-0.0892243797	 0.0849991929	 0.114604
H	 3.0319898971	-0.2671764105	-1.6405858815	 0.114419
H	 0.9353795905	 2.0124615194	 0.5887006492	 0.111882
H	-0.5287678071	 1.701046747	 1.5203445691	 0.111663
H	 1.0422825864	 1.1928867349	 2.1461334306	 0.111682
H	 0.149498126	-1.2408780578	 2.4068265281	 0.108656
H	-1.4231822926	-0.7315605661	 1.777098461	 0.108661
H	-0.5416675486	-2.0505776652	 0.9934677726	 0.108582
127.6166	145.3532	161.3776	205.6941	213.1233	219.4564	276.7455	282.8553	362.0902	460.1734	461.2478	527.6656	677.0482	755.6314	784.3987	928.2335	969.6039	977.5735	983.9504	1037.1241	1042.5707	1057.3641	1117.1507	1139.5885	1159.6413	1182.9602	1184.1904	1263.9991	1333.8793	1375.4942	1409.3743	1413.7807	1416.346	1429.9277	1458.8615	1477.6629	1488.4723	1488.5823	1494.0969	1501.3262	1501.7624	1505.3347	1526.3129	3013.5179	3023.3507	3028.5301	3032.4206	3070.0344	3074.5244	3081.6561	3083.0751	3093.9159	3099.9924	3108.6693	3118.1616	3119.2648	3132.4298
CC1C(C)C1(C)C	C[C@H]1[C@@H](C)C1(C)C	
InChI=1S/C7H14/c1-5-6(2)7(5,3)4/h5-6H,1-4H3	InChI=1S/C7H14/c1-5-6(2)7(5,3)4/h5-6H,1-4H3/t5-,6+
