19
gdb 1694	4.59414	1.55391	1.46149	2.3042	63.83	-0.2568	0.0624	0.3192	943.7099	0.169663	-348.062001	-348.053042	-348.052098	-348.094808	32.662	
C	 0.0094603812	 1.6259103163	 0.0761727255	-0.383454
C	-0.0070313277	 0.0963176316	 0.0881702092	-0.186698
C	-1.4226632856	-0.4821826089	-0.0492665322	 0.157835
O	-2.0696736985	-0.0186814426	-1.2277806144	-0.44316
C	-1.4261246799	-2.021365646	-0.0336147999	 0.118211
C	-2.835931681	-2.5985996282	 0.054191494	-0.417628
O	-0.781760921	-2.4030867568	-1.2555627138	-0.452077
H	 1.031986429	 2.012134449	 0.1272070624	 0.105528
H	-0.4588838551	 2.0049756473	-0.8356572098	 0.130453
H	-0.5449284308	 2.0351108359	 0.9287161209	 0.10759
H	 0.6085689161	-0.2981710163	-0.7289002838	 0.106872
H	 0.4355825067	-0.2796777903	 1.0201959947	 0.085747
H	-2.0372093012	-0.1271015222	 0.7882546916	 0.075108
H	-1.6864809207	-0.5403532912	-1.9455886331	 0.284207
H	-0.8295256101	-2.3687418303	 0.8246555375	 0.065923
H	-3.460529116	-2.1850663459	-0.7415794779	 0.137347
H	-2.8198382656	-3.691439065	-0.0349551115	 0.10094
H	-3.2944933548	-2.3548298768	 1.0179138122	 0.12019
H	-0.9662194953	-3.3323721697	-1.4193214116	 0.287066
100.9146	111.0622	186.1922	218.3648	241.4284	254.7157	302.4885	315.6028	342.7646	452.9593	485.0411	511.2083	681.1256	780.689	823.6453	891.1436	965.8443	988.0629	1019.1628	1053.4805	1077.6217	1116.4101	1131.3198	1170.9271	1214.0158	1269.9578	1303.0773	1351.4792	1367.9623	1387.5598	1404.4503	1405.1511	1419.5745	1439.9247	1486.2134	1489.2747	1496.4726	1502.5369	1510.8087	2977.6678	3021.6032	3026.8306	3030.9877	3034.3333	3066.965	3094.5496	3098.9942	3123.4837	3130.1792	3763.1217	3833.9206
CCC(O)C(C)O	CC[C@@H](O)[C@@H](C)O	
InChI=1S/C5H12O2/c1-3-5(7)4(2)6/h4-7H,3H2,1-2H3	InChI=1S/C5H12O2/c1-3-5(7)4(2)6/h4-7H,3H2,1-2H3/t4-,5-/m1/s1
