9
gdb 3913	8.9816	2.08012	1.68896	3.4619	47.97	-0.2923	-0.1056	0.1867	645.3087	0.054751	-375.348487	-375.343035	-375.34209	-375.378044	18.459	
O	-0.0295105717	-0.044637572	-0.0004290012	-0.235038
C	-0.0094375342	 1.1590303942	 0.0084713814	 0.084381
C	 1.2199170747	 1.9722947055	 0.0021296206	 0.313052
C	 1.4001810601	 3.3239946064	 0.0104802097	-0.161303
N	 2.7548500995	 3.5453197321	-0.0014273954	-0.107248
N	 3.3735526912	 2.4459467754	-0.0165609222	 0.023527
O	 2.4243361682	 1.3956450772	-0.0143481935	-0.18706
H	-0.9332196372	 1.7723800591	 0.0226095574	 0.106589
H	 0.6855633193	 4.1295611821	 0.0238689431	 0.1631
122.3388	192.4303	277.0048	488.849	671.9048	677.686	698.8507	788.3152	855.6354	988.6657	1019.9807	1050.2719	1117.8218	1251.1528	1359.2554	1410.0078	1445.9313	1587.5506	1808.6279	2929.4839	3291.0681
O=CC1=CN=NO1	O=Cc1cnno1	
InChI=1S/C3H2N2O2/c6-2-3-1-4-5-7-3/h1-2H	InChI=1S/C3H2N2O2/c6-2-3-1-4-5-7-3/h1-2H
