17
gdb 1796	3.52257	2.34412	1.83643	2.5203	60.53	-0.2341	0.082	0.3161	772.0454	0.146017	-346.825502	-346.817381	-346.816437	-346.857289	29.776	
C	 0.1563587154	 1.1302082982	-0.2998961751	-0.246135
O	-0.1141402001	-0.1166951115	 0.3152943549	-0.293379
C	-1.4165358684	-0.6135132424	 0.1271012098	 0.371854
C	-2.4838728749	 0.0476307951	 0.9653888322	-0.455113
C	-1.7339794501	-1.1739438277	-1.2502022762	-0.382945
C	-1.3989982397	-2.1005347295	-0.0951605941	 0.09748
O	-0.1790698144	-2.7675074344	-0.0687050001	-0.434068
H	 1.2148088876	 1.342646826	-0.1327253702	 0.129769
H	-0.0402105253	 1.0991300011	-1.3798337895	 0.114238
H	-0.4390213658	 1.940004937	 0.1417336898	 0.115781
H	-2.658954549	 1.0855587908	 0.6600121243	 0.117603
H	-3.4327890263	-0.4868956477	 0.8647654074	 0.122062
H	-2.1971912389	 0.0434381101	 2.0220081826	 0.127905
H	-2.7551243746	-1.1197018486	-1.6135462245	 0.109788
H	-0.9682350656	-1.0770059905	-2.0126766529	 0.116879
H	-2.2008703511	-2.6932957948	 0.3367442851	 0.096679
H	 0.4859241213	-2.0883391512	 0.1117330364	 0.2916
104.1102	178.9826	191.4699	217.4252	246.2492	287.2063	375.7724	395.3464	437.2582	480.3637	616.2947	681.2403	814.2631	863.1345	931.1051	940.2591	1020.8463	1042.0542	1097.6635	1108.3262	1130.6038	1164.6726	1182.9065	1221.2534	1262.8198	1298.7853	1360.0189	1414.603	1430.1614	1475.2823	1477.819	1480.6505	1495.7212	1504.0913	1511.034	3002.476	3030.905	3058.9137	3093.7793	3114.0259	3120.5816	3127.5381	3144.6576	3220.2005	3741.014
COC1(C)CC1O	CO[C@@]1(C)C[C@H]1O	
InChI=1S/C5H10O2/c1-5(7-2)3-4(5)6/h4,6H,3H2,1-2H3	InChI=1S/C5H10O2/c1-5(7-2)3-4(5)6/h4,6H,3H2,1-2H3/t4-,5+/m1/s1
