14
gdb 1637	4.67789	2.1175	1.49974	3.9929	57.6	-0.2462	-0.0082	0.238	778.9852	0.114043	-357.927353	-357.919782	-357.918838	-357.959056	26.806	
C	-0.2684406462	 1.4324080293	-0.0233550646	-0.330074
N	-0.0852416081	-0.0196082146	-0.0061957852	-0.103684
C	 0.1138890827	-0.6490500669	 1.2087413278	 0.15292
O	 0.0269884322	-0.1021409084	 2.2843808971	-0.323742
C	 0.055637428	-0.6751855903	-1.2421758329	 0.407951
N	-0.0543065158	-2.0649754115	-1.1748062047	-0.555642
N	 0.2980857432	 0.0279092804	-2.2784477606	-0.523935
H	 0.630589119	 1.92752484	-0.3969597842	 0.150975
H	-1.0986877873	 1.6902833972	-0.682338503	 0.140114
H	-0.4736233887	 1.7425502308	 0.9996748347	 0.158568
H	 0.3767917524	-1.7121048494	 1.098200171	 0.104861
H	-0.7982642762	-2.4211042836	-0.5904717567	 0.258312
H	-0.0438902494	-2.5071938744	-2.0822353017	 0.253525
H	 0.3080788842	-0.5452266187	-3.1199706569	 0.209851
84.1845	123.0256	177.7284	270.8493	334.3179	354.9146	387.9821	465.5848	530.0228	594.8703	660.8667	735.9119	822.4685	847.0625	1038.3761	1045.9919	1101.6393	1124.5798	1160.9708	1228.0884	1346.821	1420.9066	1446.865	1469.6904	1488.9206	1510.553	1635.3717	1723.0938	1801.1322	3020.2878	3068.1657	3135.6529	3179.8552	3503.2903	3557.7651	3661.3663
CN(C=O)C(N)=N	CN(C=O)C(=N)N	
InChI=1S/C3H7N3O/c1-6(2-7)3(4)5/h2H,1H3,(H3,4,5)	InChI=1S/C3H7N3O/c1-6(2-7)3(4)5/h2H,1H3,(H3,4,5)
