14
gdb 2165	3.92324	3.19785	1.83245	4.7708	54.09	-0.2473	0.0552	0.3025	675.3106	0.115137	-361.764434	-361.757801	-361.756857	-361.795133	23.038	
C	-0.0547729767	 1.4091686611	 0.0374693155	-0.338178
N	-0.0289184203	-0.0318740964	 0.1274707267	-0.127723
C	-1.1978551492	-0.8533294396	-0.0969813855	-0.187648
C	-0.5790342707	-2.2570562187	 0.029300355	-0.088634
O	 0.8186111727	-2.0674036679	-0.2159527604	-0.242379
C	 1.1309923689	-0.7404335818	-0.0908970092	 0.488431
O	 2.2519538191	-0.3150192154	-0.1632675645	-0.401372
H	 0.9735151706	 1.764889727	 0.1167168264	 0.169183
H	-0.476500933	 1.7478732211	-0.9195919051	 0.120402
H	-0.6509403126	 1.8389618315	 0.849557391	 0.12605
H	-1.9781686216	-0.6750822412	 0.6502578901	 0.119992
H	-1.633503099	-0.6750722481	-1.0926040584	 0.110099
H	-0.7095366784	-2.665359994	 1.0376235255	 0.123038
H	-0.9688849999	-2.9709120276	-0.698419577	 0.128738
142.8742	146.6785	189.6743	200.02	304.0902	512.0635	643.3316	705.1693	767.4674	798.2269	888.6528	969.4739	1031.7393	1080.0258	1127.9148	1133.1101	1172.5384	1221.4231	1243.489	1294.3986	1312.1926	1397.4961	1432.6174	1453.8367	1491.091	1513.1694	1524.6753	1542.1146	1875.1116	2980.3927	3004.0835	3042.6452	3063.6383	3069.262	3116.3739	3148.0447
CN1CCOC1=O	CN1CCOC1=O	
InChI=1S/C4H7NO2/c1-5-2-3-7-4(5)6/h2-3H2,1H3	InChI=1S/C4H7NO2/c1-5-2-3-7-4(5)6/h2-3H2,1H3
