15
gdb 4740	6.99473	1.24763	1.06577	2.9414	74.58	-0.2238	-0.0426	0.1812	1065.9241	0.119835	-362.727977	-362.72048	-362.719536	-362.760126	27.012	
C	-0.0046372128	 1.5413847431	-0.0136355589	-0.499811
C	-0.0007587231	 0.0418536651	 0.0151432156	 0.279822
C	-0.0814147335	-0.8015644549	-1.0868489563	-0.143341
N	-0.0478167907	-2.0887910464	-0.6579150486	-0.28813
C	 0.0538974764	-2.1167943444	 0.7128650313	 0.241513
C	 0.1075294094	-3.3768484468	 1.41595394	 0.07431
O	 0.0677640449	-4.4621911714	 0.8630143004	-0.322047
C	 0.08458963	-0.7978787267	 1.1501363687	-0.316315
H	 0.9110190524	 1.957224723	 0.42158038	 0.131084
H	-0.0814647259	 1.9154426872	-1.0385184671	 0.122644
H	-0.8465555451	 1.9552197033	 0.5526349759	 0.131076
H	-0.1596284541	-0.5605935912	-2.1362240593	 0.129071
H	-0.0882160837	-2.9292194614	-1.2115655924	 0.278093
H	 0.1892971757	-3.2887474633	 2.5194328972	 0.075019
H	 0.1607169403	-0.4842529852	 2.1813957734	 0.107012
71.3214	114.0525	170.8509	273.6004	316.8851	320.4678	484.1085	587.0094	636.4864	671.9801	672.3861	783.3763	789.9147	835.0482	987.4889	1000.1764	1005.0764	1025.6979	1064.584	1130.69	1171.5713	1271.3776	1356.978	1391.747	1412.1358	1422.4146	1467.7744	1484.2012	1502.8798	1523.8378	1615.5257	1755.6047	2913.4138	3029.6617	3080.5663	3108.0472	3239.1342	3251.8231	3661.7919
CC1=CNC(C=O)=C1	Cc1c[nH]c(C=O)c1	
InChI=1S/C6H7NO/c1-5-2-6(4-8)7-3-5/h2-4,7H,1H3	InChI=1S/C6H7NO/c1-5-2-6(4-8)7-3-5/h2-4,7H,1H3
