10
gdb 784	9.29881	3.73993	2.6672	2.1199	43.57	-0.2207	0.0271	0.2478	451.1913	0.075725	-301.369263	-301.364445	-301.363501	-301.397117	17.982	
O	 0.1118421213	 1.3274706879	 0.0828257552	-0.426765
C	 0.0715241336	-0.0210418836	 0.0796860045	 0.426122
N	 0.1076514652	-0.7158491961	-1.0484986538	-0.334317
N	 0.0478249565	-2.0065230575	-0.6316679305	-0.188006
C	-0.0233300047	-2.1219109697	 0.7128141385	-0.005403
C	-0.0110437468	-0.8419258523	 1.2263537014	-0.293972
H	 0.1668495762	 1.609500919	-0.8387916563	 0.302945
H	 0.0599872425	-2.7392038023	-1.3183351669	 0.27558
H	-0.0765147677	-3.0844200805	 1.1971296655	 0.13333
H	-0.054013136	-0.5380657849	 2.2580335526	 0.110486
322.9155	407.3904	414.7785	421.7963	649.7735	703.4964	718.2526	763.6985	831.8962	938.0932	1003.0959	1066.6901	1104.833	1178.3597	1253.5162	1331.9891	1431.0426	1494.462	1564.3589	1601.6405	3258.76	3287.4066	3694.6853	3796.2975
OC1=NNC=C1	Oc1n[nH]cc1	
InChI=1S/C3H4N2O/c6-3-1-2-4-5-3/h1-2H,(H2,4,5,6)	InChI=1S/C3H4N2O/c6-3-1-2-4-5-3/h1-2H,(H2,4,5,6)
