14
gdb 4198	4.43355	1.68757	1.64495	1.875	65.59	-0.2271	-0.0092	0.2179	817.2056	0.10828	-378.610885	-378.604482	-378.603538	-378.641314	25.141	
O	-0.1239928906	 1.3454223885	 0.0790692541	-0.398864
N	 0.0251210276	-0.0607394552	 0.0507284059	-0.312337
C	-1.0877153568	-0.6394004818	 0.0136963836	 0.537599
C	-2.6100405454	-0.3776353643	-0.0496873531	-0.147105
N	-2.5995816319	-1.5558618669	-0.9919531734	-0.300486
C	-1.5600476115	-2.1009012884	-0.0455238863	-0.136849
C	-2.3006141566	-2.1517094855	 1.3081901667	-0.091521
C	-2.9953754305	-1.0050690996	 1.3052742663	-0.086549
H	 0.7929293721	 1.6401032579	 0.0844014297	 0.307535
H	-3.0568192556	 0.5563852948	-0.3792282052	 0.095935
H	-3.4717272108	-2.0861994963	-0.9170465397	 0.207258
H	-0.9373022194	-2.9313124185	-0.369851851	 0.090018
H	-2.1916812422	-2.9014361297	 2.0783316526	 0.117535
H	-3.6110772785	-0.5584812648	 2.0724445397	 0.117832
132.6613	195.6782	311.9157	390.8512	438.2657	520.0531	580.3908	673.5708	681.6974	763.0487	803.1132	838.004	857.2526	892.3085	908.8191	931.5416	953.6939	1008.8952	1075.8198	1087.7169	1133.1956	1152.0205	1217.6138	1229.2839	1268.4646	1295.4999	1324.3004	1406.8231	1594.5985	1824.4978	3154.7356	3165.7553	3229.5455	3255.6114	3412.1329	3819.9687
ON=C1C2NC1C=C2	ON=C1[C@H]2N[C@@H]1C=C2	
InChI=1S/C5H6N2O/c8-7-5-3-1-2-4(5)6-3/h1-4,6,8H	InChI=1S/C5H6N2O/c8-7-5-3-1-2-4(5)6-3/h1-4,6,8H/t3-,4+
