14
gdb 4260	4.14689	1.85955	1.29416	3.8308	68.82	-0.2336	-0.0271	0.2065	896.8139	0.108771	-378.760379	-378.753541	-378.752597	-378.791476	25.351	
C	 0.0473280609	 1.492963743	-0.001488346	-0.47546
C	-0.072309407	 0.0087934914	 0.0406601999	 0.373489
C	-1.1606172668	-0.7351548722	-0.1920903786	-0.221986
C	-1.1036172756	-2.1901151818	-0.1086010541	 0.335654
N	-2.1313422613	-2.9158993073	-0.3276990612	-0.524096
N	 0.1631582063	-2.7392453247	 0.2301654922	-0.311398
C	 1.1317699297	-1.9475488041	 0.4318565831	 0.121927
O	 1.126945474	-0.5914551805	 0.3653353979	-0.227007
H	 0.7951519718	 1.7985828653	-0.7414566462	 0.149092
H	-0.9118559791	 1.94417601	-0.2596102487	 0.145274
H	 0.3733594093	 1.8812249562	 0.9696022896	 0.149081
H	-2.102556962	-0.2671611803	-0.4466241319	 0.122259
H	-1.8702486128	-3.8981089169	-0.2166952585	 0.219168
H	 2.1241225526	-2.3055078282	 0.6926151826	 0.144003
123.4651	162.3623	193.8517	305.3359	438.2569	455.4629	518.696	553.4392	571.6951	752.291	790.9895	883.8344	889.0848	919.715	923.9693	973.7636	1026.3612	1069.1872	1094.7963	1173.5921	1193.5669	1287.9283	1393.0463	1417.0898	1421.8301	1469.513	1483.5698	1663.3804	1700.6008	1747.9969	3039.2705	3094.4866	3145.8179	3182.8967	3223.9604	3459.6283
CC1=CC(=N)N=CO1	C[C@H]1C=C([NH])N=CO1	
InChI=1S/C5H6N2O/c1-4-2-5(6)7-3-8-4/h2-3,6H,1H3	InChI=1S/C5H7N2O/c1-4-2-5(6)7-3-8-4/h2-4,6H,1H3/t4-/m0/s1
