19
gdb 1975	5.53078	1.58312	1.45144	1.5092	67.98	-0.2395	0.0916	0.3312	935.7818	0.17085	-310.917273	-310.909253	-310.908309	-310.94974	29.154	
C	-0.31307168	 1.4239987779	-0.1303206177	-0.379451
C	 0.0062002944	-0.068850476	-0.010825425	-0.188395
C	 0.8894005426	-0.5646336447	-1.141938007	 0.182717
C	 1.0729692591	-2.0839914284	-1.3377913274	-0.326808
C	 0.5655744298	-1.8194392448	-2.7722456112	 0.181773
C	-0.6392016795	-2.5849098661	-3.279716936	-0.397722
O	 0.2526805909	-0.4439566575	-2.4399664931	-0.315356
H	 0.5986325527	 2.0294700993	-0.0778449221	 0.111889
H	-0.7989250914	 1.632107673	-1.087750473	 0.137457
H	-0.9801310611	 1.75320305	 0.6718798859	 0.109516
H	 0.5143199267	-0.2780282619	 0.9403710561	 0.092909
H	-0.9228579614	-0.6523057152	-0.0114571883	 0.09443
H	 1.8436322489	-0.0148675647	-1.1380167969	 0.065037
H	 2.0854047534	-2.4776071397	-1.2365312545	 0.103633
H	 0.3871168933	-2.6872213599	-0.7364570169	 0.10207
H	 1.372957261	-1.8528252994	-3.5187693129	 0.069324
H	-1.4424846371	-2.5827985944	-2.5363998426	 0.11686
H	-1.0217243975	-2.1301175859	-4.1991374271	 0.126305
H	-0.3680936847	-3.6235737016	-3.4997747005	 0.113812
54.577	106.1014	191.9611	227.0655	242.9972	327.3598	398.3294	422.9966	457.6319	670.2374	778.8744	812.1181	894.647	909.5805	919.069	961.5944	978.9305	1021.9011	1071.8522	1099.6325	1121.8732	1141.5281	1184.4209	1206.7072	1250.8867	1274.5011	1298.159	1321.0463	1353.095	1380.7332	1401.8744	1409.3647	1421.7217	1473.3493	1481.0991	1490.1499	1495.4057	1498.9132	1509.6979	2975.7491	2988.7183	3016.9272	3031.5241	3036.4591	3057.1661	3063.9975	3102.6995	3103.4644	3110.5841	3119.2542	3126.0795
CCC1CC(C)O1	CC[C@H]1C[C@@H](C)O1	
InChI=1S/C6H12O/c1-3-6-4-5(2)7-6/h5-6H,3-4H2,1-2H3	InChI=1S/C6H12O/c1-3-6-4-5(2)7-6/h5-6H,3-4H2,1-2H3/t5-,6+/m1/s1
