14
gdb 3654	3.55692	3.39488	1.77537	4.6004	59.43	-0.2382	0.0054	0.2436	697.4367	0.114074	-320.773105	-320.765963	-320.765019	-320.805258	24.383	
C	 0.1351340576	 1.5491172596	 0.1074083801	-0.507033
C	 0.0459489301	 0.0659176198	-0.0204875951	 0.256145
C	-0.0587141605	-0.7808393779	-1.1059355935	 0.234107
C	-0.1235930083	-0.4657778243	-2.5651276745	-0.495705
N	-0.1109586235	-2.0678720859	-0.6462511072	-0.247497
N	-0.0466255868	-2.071862094	 0.6524923043	-0.124552
N	 0.0461231783	-0.7854144229	 1.0382390346	-0.221748
H	 0.9643300645	 1.8531184838	 0.7556963607	 0.137622
H	 0.2977576781	 2.0005162909	-0.8738029014	 0.147046
H	-0.7840484909	 1.9811923751	 0.5201922244	 0.143513
H	 0.4650183506	 0.4224988594	-2.8139991139	 0.121534
H	 0.2655281228	-1.3085469003	-3.1411873592	 0.14809
H	-1.1518890002	-0.2845894744	-2.8992520835	 0.134139
H	 0.1183602582	-0.570766379	 2.0202111542	 0.274338
36.1213	75.7281	237.7431	243.7697	290.916	403.8473	563.6631	646.3872	686.086	716.6835	732.3998	970.4322	1004.3112	1035.5054	1056.9417	1068.0515	1091.4264	1207.7977	1257.0106	1318.0781	1371.6661	1413.0854	1425.5494	1476.6886	1480.4894	1484.0207	1493.9887	1515.1201	1631.6836	3030.0481	3033.4941	3081.5975	3089.386	3124.9735	3126.7488	3651.4063
CC1=C(C)N=NN1	Cc1c(C)nn[nH]1	
InChI=1S/C4H7N3/c1-3-4(2)6-7-5-3/h1-2H3,(H,5,6,7)	InChI=1S/C4H7N3/c1-3-4(2)6-7-5-3/h1-2H3,(H,5,6,7)
