13
gdb 3460	4.72941	2.693	2.68437	2.5516	53.1	-0.2501	-0.0147	0.2354	579.87	0.103121	-344.440744	-344.435338	-344.434394	-344.469853	20.729	
O	 0.0012679804	-0.0327219332	-0.0800674925	-0.309363
C	-0.0126584567	 1.1497755738	 0.0485909491	 0.445048
C	-1.0359811424	 2.3107225722	 0.0407403433	-0.037497
C	-0.802241881	 2.9826349483	 1.4070857321	-0.22825
C	 0.7666815004	 3.003587481	 1.3843850706	-0.22825
C	 0.9786565847	 2.3376183524	 0.011593231	-0.037498
O	-0.0495488979	 2.9757416015	-0.8162595018	-0.291406
H	-2.0362452017	 2.249023466	-0.3822459403	 0.105461
H	-1.2325127858	 3.9857414976	 1.4294444857	 0.120596
H	-1.2177294597	 2.403812195	 2.2361534967	 0.117552
H	 1.1704860269	 4.0178322475	 1.3946811629	 0.120596
H	 1.2212802103	 2.4363799082	 2.2008613974	 0.117551
H	 1.9675584326	 2.3024804297	-0.4401706944	 0.105461
161.289	243.9795	440.8529	470.3209	626.4138	680.4713	746.8496	835.5114	839.2098	880.5204	905.9091	907.7603	964.8395	982.2099	1050.6771	1053.7314	1107.6171	1177.996	1212.3449	1222.3682	1247.7935	1281.3042	1307.0522	1322.4278	1476.84	1495.7804	1925.502	3066.1638	3074.582	3112.4983	3128.8727	3155.8351	3159.4228
O=C1C2CCC1O2	O=C1[C@H]2CC[C@@H]1O2	
InChI=1S/C5H6O2/c6-5-3-1-2-4(5)7-3/h3-4H,1-2H2	InChI=1S/C5H6O2/c6-5-3-1-2-4(5)7-3/h3-4H,1-2H2/t3-,4+
