11
gdb 3865	6.27053	2.81095	1.94175	4.9076	55.05	-0.2299	-0.0501	0.1798	601.249	0.081051	-335.635079	-335.62949	-335.628546	-335.664218	20.633	
N	 0.0019160855	 1.3678950531	 0.1070195668	-0.566729
C	 0.0093689248	 0.0125632194	 0.0367743806	 0.401261
C	-1.1838060051	-0.7509353728	 0.0172756589	-0.031927
N	-1.1642331557	-2.0660372503	-0.020889781	-0.164347
N	 0.0161986595	-2.7044440339	-0.0377764614	-0.213996
C	 1.1076839025	-1.9469741534	-0.0187279354	 0.105784
N	 1.1845658056	-0.6138564803	 0.0140722959	-0.311086
H	 0.8797439864	 1.8415693217	-0.0331369694	 0.270473
H	-0.8425471425	 1.8798636051	-0.0795900839	 0.268478
H	-2.1629701683	-0.2783812597	 0.0323641081	 0.111996
H	 2.0509055971	-2.4871841689	-0.0353560191	 0.130093
183.7463	276.9499	378.8022	384.9945	488.1127	571.457	579.9114	689.3241	815.7337	900.5124	913.1015	1001.5269	1019.5485	1037.0794	1066.8119	1217.3918	1301.6268	1358.8908	1414.0422	1494.7049	1572.1166	1597.6492	1647.5409	3156.0253	3171.9539	3604.2901	3733.2639
NC1=CN=NC=N1	Nc1cnncn1	
InChI=1S/C3H4N4/c4-3-1-6-7-2-5-3/h1-2H,(H2,4,5,7)	InChI=1S/C3H4N4/c4-3-1-6-7-2-5-3/h1-2H,(H2,4,5,7)
