13
gdb 271	8.91475	1.86414	1.62849	14.8809	54.51	-0.167	-0.0333	0.1338	714.9069	0.107753	-323.582949	-323.575941	-323.574996	-323.614532	23.572	
N	-0.1154594636	 0.9594606304	-0.0418313489	-0.416518
H	-0.3257014144	-0.0359798464	 0.0587509999	 0.324403
H	 0.8898694341	 1.0428378366	-0.2037360955	 0.319127
H	-0.6152111659	 1.3176122495	-0.8617376193	 0.313023
C	-0.5130594595	 1.6754972886	 1.2847420453	-0.179898
C	 0.1633028003	 1.0759096615	 2.4754813508	-0.362148
C	-0.8294842703	 1.3117762516	 3.7677550055	 0.378906
O	-2.0293185494	 1.3417178417	 3.437502693	-0.464712
O	-0.2294997621	 1.3877019507	 4.8339189894	-0.435135
H	-0.2837360253	 2.7293622845	 1.1145665096	 0.144173
H	-1.5918941197	 1.527684564	 1.4115850922	 0.18265
H	 0.2264012804	-0.0172612198	 2.3831653584	 0.091372
H	 1.1595647852	 1.4748597771	 2.6739338795	 0.104757
50.3535	82.7455	195.5306	251.4004	315.183	427.0672	584.9715	647.5721	713.5009	766.9517	794.9767	875.9251	934.7275	1016.5146	1102.4288	1173.8304	1220.2638	1246.4712	1317.5082	1369.1953	1426.5832	1467.8626	1492.258	1635.8458	1655.8076	1836.3709	3016.5939	3050.0361	3113.4677	3137.9545	3377.5469	3488.012	3512.5893
[NH3+]CCC([O-])=O	[NH3]CCC(=O)[O]	
InChI=1S/C3H7NO2/c4-2-1-3(5)6/h1-2,4H2,(H,5,6)	InChI=1S/C3H7NO2/c4-2-1-3(5)6/h1-2H2,4H3
