12
gdb 4953	3.23036	2.6061	1.44242	4.2052	60.63	-0.2366	-0.0485	0.1881	782.5266	0.08469	-414.660585	-414.654118	-414.653174	-414.691893	23.781	
N	-0.0277736095	 1.2144883641	 0.4425603083	-0.45556
C	-0.0136557081	 0.0248700768	 0.0283174095	 0.331559
O	 1.1474924177	-0.5601081774	-0.4202472288	-0.225423
C	 1.1232055326	-1.8573486892	-0.8634527193	-0.034109
C	 0.0153619345	-2.5832669666	-0.8792400838	-0.034109
O	-1.1923718411	-2.0933133001	-0.4535907407	-0.225423
C	-1.2742670666	-0.8010931454	 0.0102358157	 0.331559
N	-2.3675007816	-0.3184302665	 0.4088141852	-0.45556
H	 0.9095719696	 1.6176701764	 0.3830817727	 0.235417
H	 2.0894039189	-2.2099834652	-1.1904026178	 0.148116
H	-0.0403880329	-3.6055542126	-1.2207187151	 0.148116
H	-3.1099787635	-1.0158940043	 0.3252633342	 0.235417
51.1781	136.9939	366.3263	431.3613	507.2003	511.5935	525.3308	529.8251	719.6606	761.4582	767.9568	850.7966	881.8249	933.5989	938.1939	959.9081	1017.4618	1113.3643	1166.0629	1235.6218	1285.374	1370.6677	1401.3166	1739.6732	1741.6725	1762.891	3248.5832	3269.0309	3474.288	3475.2206
N=C1OC=COC1=N	[NH]C1=C(OC=CO1)[NH]	
InChI=1S/C4H4N2O2/c5-3-4(6)8-2-1-7-3/h1-2,5-6H	InChI=1S/C4H4N2O2/c5-3-4(6)8-2-1-7-3/h1-2,5-6H
