12
gdb 946	5.97845	2.80397	1.9111	2.0249	59.71	-0.2239	-0.0357	0.1881	622.82	0.093523	-319.610687	-319.605198	-319.604254	-319.639661	21.081	
N	-0.0266403526	 1.3759457187	 0.1664725583	-0.565337
C	 0.0079705324	 0.0040161518	 0.0620966292	 0.36898
N	-1.1618946967	-0.64060845	 0.0452959925	-0.307052
C	-1.1050677548	-1.9741761056	 0.0013013669	-0.013283
C	 0.0940953947	-2.6712280399	-0.0356867854	-0.036575
N	 1.2697334078	-2.0265127447	-0.0292356204	-0.22235
C	 1.2282457694	-0.7058221261	 0.0214882899	-0.059225
H	 0.7727233735	 1.8882586544	-0.1701350221	 0.256432
H	-0.9200849204	 1.7900834063	-0.0528442188	 0.259064
H	-2.0567808126	-2.5001083232	-0.0100155956	 0.110905
H	 0.1193010009	-3.755519946	-0.0748191292	 0.108016
H	 2.1776151083	-0.1732186758	 0.0314157147	 0.100426
196.9803	366.5552	405.3568	433.5227	484.4531	565.2804	588.6771	649.5724	785.5096	858.416	876.7484	933.0884	979.41	1018.1884	1061.0795	1091.828	1212.2026	1265.8851	1348.4492	1352.5277	1461.2705	1516.5145	1583.3122	1617.2333	1643.9834	3137.3278	3153.903	3182.9233	3582.685	3698.8795
NC1=NC=CN=C1	Nc1nccnc1	
InChI=1S/C4H5N3/c5-4-3-6-1-2-7-4/h1-3H,(H2,5,7)	InChI=1S/C4H5N3/c5-4-3-6-1-2-7-4/h1-3H,(H2,5,7)
