13
gdb 2404	6.74336	2.11183	1.9926	2.929	54.56	-0.2583	-0.0126	0.2457	666.8934	0.100798	-344.392695	-344.38661	-344.385666	-344.422425	22.702	
C	-0.0718565437	 1.5582614055	 0.0076965851	-0.432581
C	-0.0316240345	 0.0390345179	 0.0117724262	 0.024313
C	 1.2025461538	-0.6537231626	-0.6398070936	-0.088326
O	 2.023486769	-0.2227007138	 0.52454167	-0.30034
C	 0.7519896999	-0.6608193545	 1.162336144	-0.088326
C	 0.9004410993	-1.8986046544	 0.2371687098	 0.478456
O	 0.9175263824	-3.0835914604	 0.2367742278	-0.307928
H	 0.9077246596	 1.9716014065	 0.254214009	 0.144327
H	-0.3720101461	 1.9315460351	-0.9764781456	 0.124638
H	-0.8005154285	 1.9247972396	 0.7375879979	 0.124638
H	-1.000456338	-0.4106004722	-0.232217381	 0.091992
H	 1.6332535579	-0.5382712503	-1.6323069632	 0.114569
H	 0.6647384388	-0.5535246764	 2.2415808236	 0.114569
150.3765	233.3788	251.1734	314.8165	475.7816	551.7154	690.5108	760.6656	763.9009	784.1305	815.3006	894.3223	954.5341	1015.2782	1057.3198	1094.7754	1100.3011	1146.3256	1147.2401	1195.2726	1213.3553	1255.2857	1387.3768	1404.3311	1496.0576	1502.7859	1940.0669	3043.458	3055.7663	3104.2506	3140.9374	3150.0508	3154.4806
CC1C2OC1C2=O	C[C@H]1[C@H]2O[C@@H]1C2=O	
InChI=1S/C5H6O2/c1-2-4-3(6)5(2)7-4/h2,4-5H,1H3	InChI=1S/C5H6O2/c1-2-4-3(6)5(2)7-4/h2,4-5H,1H3/t2-,4+,5-
