17
gdb 2370	4.34336	1.89225	1.59633	2.7316	60.2	-0.2538	0.0726	0.3263	819.3809	0.146991	-346.829378	-346.821353	-346.820409	-346.861558	29.739	
C	 0.4363880665	 0.6286911731	-0.6416682545	-0.414809
C	 0.0425918061	-0.0302051157	 0.6788491144	 0.124235
O	-0.204551211	 0.9598717487	 1.6812168693	-0.43048
C	-1.1376716847	-0.9961252975	 0.6340021567	-0.041518
C	-2.247447417	-0.9372131236	-0.4044758356	-0.346894
C	-1.3122955686	-2.1200542125	-0.3444983583	 0.093677
O	-0.3375134757	-2.2975145066	-1.3345333897	-0.412214
H	 1.299302689	 1.2781951364	-0.4729871638	 0.118173
H	 0.6836482852	-0.1199127186	-1.3960411563	 0.138529
H	-0.3801868027	 1.2510842442	-1.0280073442	 0.098933
H	 0.9077164905	-0.5835273682	 1.0640695194	 0.096305
H	-0.9643987843	 1.4753127611	 1.3876427109	 0.273626
H	-1.4619742797	-1.2368929942	 1.6428283748	 0.097277
H	-3.2781281043	-1.0572240485	-0.0880317304	 0.110967
H	-2.1075046876	-0.2649960708	-1.2442551051	 0.116337
H	-1.7090292285	-3.0530981185	 0.0560422766	 0.088817
H	-0.7828860431	-2.5783420189	-2.1406079441	 0.28904
45.9397	185.8266	240.8671	261.9215	289.0732	308.4741	333.4114	405.8869	423.3297	556.7904	579.3226	751.0446	813.1019	859.5515	911.3213	963.3075	989.1438	1033.1842	1046.6302	1064.3384	1124.2869	1139.8307	1174.8082	1187.2455	1249.0584	1288.5064	1298.2529	1366.8708	1376.1611	1404.0945	1422.859	1423.7102	1488.4188	1495.7409	1504.7028	3029.4867	3040.0298	3094.4671	3104.7498	3131.113	3146.1793	3147.7988	3218.8985	3794.3348	3807.422
CC(O)C1CC1O	C[C@@H](O)[C@H]1C[C@H]1O	
InChI=1S/C5H10O2/c1-3(6)4-2-5(4)7/h3-7H,2H2,1H3	InChI=1S/C5H10O2/c1-3(6)4-2-5(4)7/h3-7H,2H2,1H3/t3-,4-,5-/m1/s1
