11
gdb 557	10.16978	2.44557	2.18948	2.742	46.76	-0.2731	0.0136	0.2867	555.134	0.085731	-285.276468	-285.270937	-285.269993	-285.305789	18.623	
N	-0.1795088468	-1.1697245933	-0.2196164943	-0.314849
C	-0.0980520987	-0.021914138	-0.1084827498	 0.269804
C	 0.0159525778	 1.416251149	 0.0438651794	-0.189173
C	-0.0921112761	 2.0121285434	 1.475949693	-0.073258
O	 1.1498251032	 2.717862096	 1.3135219336	-0.260345
C	 1.4404203069	 2.038488209	 0.0802926736	-0.073258
H	-0.6425718392	 1.9150194367	-0.6698226007	 0.138414
H	-0.9363833502	 2.6859602247	 1.650561376	 0.1242
H	-0.0458867673	 1.2617839315	 2.2738150059	 0.127133
H	 2.2444810764	 1.3011772903	 0.1880046643	 0.127133
H	 1.680181844	 2.7309645906	-0.732310961	 0.1242
91.8857	189.4068	248.4555	525.7012	547.1628	674.6516	871.8117	892.4211	973.6546	1007.2434	1048.1233	1096.4801	1116.3624	1160.3356	1172.4163	1232.6871	1309.8858	1342.2518	1381.7639	1512.7262	1537.6191	2358.7797	3027.9649	3037.3663	3082.5484	3087.6691	3104.1298
N#CC1COC1	N#CC1COC1	
InChI=1S/C4H5NO/c5-1-4-2-6-3-4/h4H,2-3H2	InChI=1S/C4H5NO/c5-1-4-2-6-3-4/h4H,2-3H2
