9
gdb 3824	9.65728	2.00903	1.66306	4.8051	50.77	-0.2995	-0.0655	0.234	656.2298	0.056641	-338.23459	-338.229406	-338.228462	-338.263666	18.266	
N	 0.0102524553	-1.1465830394	-0.0034412018	-0.314978
C	-0.0200416507	 0.0089099768	 0.0031444184	 0.253797
C	-0.0012953985	 1.4337354874	 0.0105386158	 0.286816
N	-1.1306436153	 2.1186166172	 0.0288118795	-0.172704
O	-0.7489498731	 3.4386144046	 0.0309491177	-0.141979
C	 0.5915181566	 3.5235154188	 0.014160539	 0.08702
C	 1.1420556028	 2.2849142541	 0.0004551156	-0.325246
H	 0.9994180156	 4.5217752508	 0.0142751372	 0.173208
H	 2.1804889373	 2.0035703998	-0.0143910613	 0.154067
179.9749	183.8374	498.0213	557.4627	575.3227	619.6421	722.5368	807.6142	882.3764	924.8009	976.7394	1010.3225	1077.2028	1151.0664	1290.1123	1419.0053	1460.5889	1579.7327	2368.3972	3275.3959	3302.4982
N#CC1=NOC=C1	N#Cc1nocc1	
InChI=1S/C4H2N2O/c5-3-4-1-2-7-6-4/h1-2H	InChI=1S/C4H2N2O/c5-3-4-1-2-7-6-4/h1-2H
