13
gdb 3119	6.13085	2.15132	1.86713	5.0232	59.16	-0.2811	0.0091	0.2902	681.0231	0.103498	-303.469034	-303.463127	-303.462183	-303.498673	22.081	
N	 0.0479321307	-1.1637346688	 0.0593223605	-0.343327
C	 0.0508344141	-0.0072504455	 0.0363099071	 0.232175
C	 0.0323924854	 1.4213495477	-0.0486877163	 0.203071
C	-0.7179091666	 2.2458573403	-1.1146145854	-0.293652
C	 0.4491467741	 3.2875018181	-1.0880844567	-0.238745
C	 1.1606714494	 2.4348009059	-0.0286898771	-0.075776
N	 0.3317021012	 2.2151896843	 1.1404930533	-0.33393
H	-0.7922841518	 1.7308641181	-2.0735221384	 0.135043
H	-1.7134176761	 2.5861951668	-0.8153906424	 0.114753
H	 0.9845491733	 3.3295211095	-2.0383727972	 0.125517
H	 0.2048432731	 4.3070416277	-0.7751714189	 0.112901
H	 2.2258904778	 2.2618913175	 0.0670825387	 0.124001
H	-0.3593415645	 2.9484034683	 1.2938710627	 0.237968
160.0153	177.4992	296.989	438.9456	528.5781	564.1635	591.4567	757.4694	781.4265	825.8942	915.49	943.4074	948.562	1043.8514	1058.0419	1084.8105	1118.7205	1158.3815	1203.8331	1225.4454	1253.564	1278.7939	1296.3644	1413.6552	1479.0636	1497.4447	2355.4545	3058.7673	3066.3371	3116.5766	3134.5266	3194.8664	3462.1302
N#CC12CCC1N2	N#C[C@]12CC[C@H]1N2	
InChI=1S/C5H6N2/c6-3-5-2-1-4(5)7-5/h4,7H,1-2H2	InChI=1S/C5H6N2/c6-3-5-2-1-4(5)7-5/h4,7H,1-2H2/t4-,5-/m1/s1
