19
gdb 2464	5.35561	2.11745	1.79515	0.2777	70.15	-0.2578	0.0823	0.3401	781.8658	0.173753	-273.789182	-273.782512	-273.781568	-273.819482	26.538	
C	 0.0172144159	 1.559813562	 0.0130978416	-0.405112
C	 0.0699546885	 0.0335395642	 0.0075062859	 0.074368
C	 0.8384213742	-0.5849680999	-1.1890091968	-0.238582
C	 1.2928374272	-1.9636917212	-0.7071054819	-0.024777
C	 2.5576785168	-2.0310616265	 0.11043451	-0.276129
C	 1.2234740005	-1.9716479551	 0.8097917689	-0.024778
C	 0.7263176003	-0.5978249948	 1.2626184975	-0.238582
H	 1.0262223899	 1.9867102445	 0.0614739716	 0.110068
H	-0.4637405695	 1.9472291346	-0.8916868302	 0.110285
H	-0.5444882919	 1.9379702897	 0.874219969	 0.110285
H	-0.9581594795	-0.3502560286	-0.0415183439	 0.069692
H	 0.2066455876	-0.651798031	-2.080034383	 0.09434
H	 1.6972340704	 0.0437839895	-1.4597389733	 0.091748
H	 1.0083715394	-2.8379688067	-1.281924575	 0.078233
H	 3.0995294057	-2.9712504452	 0.1302799985	 0.103224
H	 3.1950569712	-1.1509865252	 0.1441968593	 0.101398
H	 0.8881523502	-2.8517555738	 1.3470701783	 0.078233
H	 1.5565397792	 0.027647071	 1.61715897	 0.091748
H	 0.0158965239	-0.6736741373	 2.0915224435	 0.09434
96.5494	241.0212	293.2387	310.7158	401.8292	422.3158	544.7994	663.429	775.2949	807.7808	823.5921	861.465	895.964	926.5859	930.7345	946.153	1000.4051	1041.472	1047.1767	1071.3179	1107.3515	1107.4167	1152.2999	1160.5174	1205.2088	1207.8052	1262.1322	1287.5236	1301.7768	1331.0745	1360.2384	1367.6268	1386.5512	1413.9838	1483.0278	1490.5176	1497.8972	1497.9421	1506.4814	3003.8518	3014.8126	3019.425	3025.2457	3074.6249	3077.0311	3089.7663	3093.0895	3110.9812	3162.1033	3169.6026	3199.1172
CC1CC2CC2C1	C[C@H]1C[C@H]2C[C@H]2C1	
InChI=1S/C7H12/c1-5-2-6-4-7(6)3-5/h5-7H,2-4H2,1H3	InChI=1S/C7H12/c1-5-2-6-4-7(6)3-5/h5-7H,2-4H2,1H3/t5-,6-,7+
