19
gdb 2292	7.29474	1.28322	1.18889	1.5606	68.	-0.2406	0.0889	0.3295	1060.587	0.171539	-310.908555	-310.900574	-310.89963	-310.941315	28.291	
C	 0.1336850181	 1.5331143842	 0.0976325615	-0.381784
C	 0.0570093572	 0.0083884747	-0.0116347876	-0.162425
C	 0.6139267011	-0.5281087239	-1.3352162158	-0.182947
C	 0.5903521685	-2.0436990784	-1.4128966806	 0.165034
C	 1.365656621	-2.7337048243	-2.5582551279	-0.300409
C	 2.1360915881	-3.4345404172	-1.4222577694	-0.056552
O	 1.4460852492	-2.6648788135	-0.4172128619	-0.293443
H	 1.1695469687	 1.883169003	 0.025931791	 0.113978
H	-0.4341688442	 2.0192503441	-0.7039646258	 0.110242
H	-0.2702931722	 1.8853029232	 1.0519342233	 0.111618
H	 0.6131530093	-0.4544107339	 0.8114286191	 0.119167
H	-0.9858590309	-0.3170719134	 0.0998387117	 0.091546
H	 0.035515021	-0.1277181457	-2.180304179	 0.090333
H	 1.6490344064	-0.1861304353	-1.4682418811	 0.092361
H	-0.4421305278	-2.4091678163	-1.3033201239	 0.067596
H	 0.7833910049	-3.3781234564	-3.2183721419	 0.107584
H	 1.9661058566	-2.0487921212	-3.1612711552	 0.107512
H	 1.9365060747	-4.5094559583	-1.3212981793	 0.098359
H	 3.2202448403	-3.2741325214	-1.3906987671	 0.102231
71.194	104.1754	108.0997	163.1827	249.8091	323.7212	382.3705	471.9738	733.4898	751.3418	811.9903	860.5957	879.1407	909.9339	950.2986	980.9231	1024.4907	1038.6625	1056.5607	1110.6087	1126.4756	1162.7974	1187.3673	1218.3291	1253.3558	1259.1158	1284.3386	1305.9884	1329.1726	1364.9284	1383.5651	1408.4799	1415.6419	1471.638	1490.6114	1493.8203	1500.9177	1509.8848	1533.4529	2982.4811	3004.7594	3010.8736	3020.7276	3028.1054	3045.4388	3051.6215	3068.6081	3074.1901	3096.3303	3101.0412	3130.3996
CCCC1CCO1	CCC[C@H]1CCO1	
InChI=1S/C6H12O/c1-2-3-6-4-5-7-6/h6H,2-5H2,1H3	InChI=1S/C6H12O/c1-2-3-6-4-5-7-6/h6H,2-5H2,1H3/t6-/m0/s1
