12
gdb 505	80.09637	1.11623	1.11623	0.0009	71.63	-0.2265	0.0026	0.2291	1041.5974	0.094213	-232.0639	-232.056277	-232.055333	-232.096384	24.215	
C	-0.0180476136	 1.4758312824	 0.0102523048	-0.518052
C	 0.0020155157	 0.0239806864	 0.0018126203	 0.257785
C	 0.0184867637	-1.1862456438	-0.0050048383	-0.202828
C	 0.0367618427	-2.5464682765	-0.012249089	-0.202829
C	 0.0530176069	-3.756699852	-0.0186594921	 0.257788
C	 0.0725874522	-5.2085608366	-0.0264999834	-0.518052
H	 0.9978019664	 1.887249611	 0.0028143151	 0.15436
H	-0.542716791	 1.8710321223	-0.8671363942	 0.154363
H	-0.5256997653	 1.8609015537	 0.9020307166	 0.154371
H	-0.9433978362	-5.6196451332	-0.0190305463	 0.154363
H	 0.5802252188	-5.5941461866	-0.9180629904	 0.154368
H	 0.5970218997	-5.6035893671	 0.851106827	 0.154362
15.093	98.4032	98.5029	249.4695	249.5223	382.2672	382.29	548.0421	548.0517	562.3019	957.4073	1045.5709	1045.5738	1051.8221	1051.8288	1296.4763	1408.9834	1416.9451	1472.8477	1472.8758	1472.8878	1472.9158	2283.0407	2391.3114	3022.2581	3022.8327	3083.7004	3083.7543	3083.8816	3083.9354
CC#CC#CC	CC#CC#CC	
InChI=1S/C6H6/c1-3-5-6-4-2/h1-2H3	InChI=1S/C6H6/c1-3-5-6-4-2/h1-2H3
