14
gdb 4266	3.96597	1.97723	1.33039	7.065	68.21	-0.2269	-0.0302	0.1968	877.4398	0.109309	-374.945155	-374.938037	-374.937092	-374.977083	25.801	
C	 0.0150878743	 1.4951570481	 0.0221229644	-0.489908
C	-0.0062884215	-0.0028140436	-0.0502274352	 0.384639
N	 0.0620010283	-0.6235827013	-1.1661812218	-0.278937
C	 0.0372051605	-2.0364315456	-1.1674102394	 0.350511
N	 0.1058643592	-2.6445837033	-2.2847475328	-0.503893
N	-0.0629643149	-2.7396758743	 0.0684306687	-0.287151
C	-0.1267729199	-2.0485483189	 1.1383958705	 0.086888
N	-0.1041893571	-0.6738281663	 1.1617053879	-0.336209
H	 0.8665302635	 1.8448575997	 0.61728204	 0.141332
H	 0.0927863697	 1.8964896592	-0.9871437535	 0.171939
H	-0.8979933009	 1.8760847266	 0.4939546908	 0.14125
H	 0.0750163257	-3.6484265734	-2.0993090081	 0.218129
H	-0.2043903109	-2.5332046065	 2.11093992	 0.13353
H	-0.1571397861	-0.1703810403	 2.0319216884	 0.267882
51.8693	124.9323	202.3845	314.9296	393.5705	499.8475	505.0531	538.9283	584.2721	606.9959	769.4662	803.2339	887.2215	910.0526	965.5155	969.0431	1009.8584	1060.589	1096.8047	1167.8074	1256.1192	1334.8461	1403.8553	1416.7853	1457.8097	1481.4172	1487.8643	1662.3646	1705.5016	1749.0476	3035.2644	3090.8644	3141.2908	3170.4381	3477.0799	3648.3663
CC1=NC(=N)N=CN1	C[C@H]1N=C([NH])N=CN1	
InChI=1S/C4H6N4/c1-3-6-2-7-4(5)8-3/h2H,1H3,(H2,5,6,7,8)	InChI=1S/C4H7N4/c1-3-6-2-7-4(5)8-3/h2-3,5H,1H3,(H,6,7,8)/t3-/m1/s1
