11
gdb 4636	5.56445	1.5007	1.18194	5.0459	58.58	-0.2486	-0.0774	0.1712	910.081	0.071856	-434.556912	-434.550483	-434.549539	-434.58788	23.001	
N	-0.1006261633	 1.2813535577	 0.0104251782	-0.560608
C	-0.0214872823	 0.0342439001	 0.0029725497	 0.507604
O	 1.1352771819	-0.748027807	-0.0070138329	-0.204321
C	 0.7291280333	-2.0457476591	-0.0123961285	-0.088968
C	-0.6112346871	-2.0965918569	-0.0062125682	 0.21969
O	-1.0946831487	-0.8024972563	 0.0034327462	-0.208849
C	-1.5071990887	-3.2435375226	-0.0083681444	 0.071313
O	-2.7128604754	-3.1813703109	-0.0021822349	-0.25838
H	 0.8191675998	 1.7127624067	 0.0084410436	 0.247472
H	 1.487733306	-2.8101431725	-0.020371793	 0.185888
H	-0.9577291254	-4.2093534292	-0.0164626458	 0.089157
124.3322	163.5475	179.0446	353.5095	449.8877	510.4125	594.5192	711.3988	724.7764	779.4022	792.0121	809.0589	873.32	998.1558	1006.9314	1008.1412	1111.0572	1201.7821	1308.8056	1358.1933	1424.5207	1679.8772	1796.2118	1830.0656	2901.1726	3292.2654	3558.806
N=C1OC=C(O1)C=O	[NH][C@H]1OC=C(O1)C=O	
InChI=1S/C4H3NO3/c5-4-7-2-3(1-6)8-4/h1-2,5H	InChI=1S/C4H4NO3/c5-4-7-2-3(1-6)8-4/h1-2,4-5H/t4-/m0/s1
