14
gdb 448	6.60272	3.33567	2.39369	2.8451	52.83	-0.235	-0.0124	0.2226	547.0211	0.120921	-270.47247	-270.466895	-270.465951	-270.501576	20.712	
O	 0.0045249849	 0.0188665606	-0.1751251169	-0.31196
C	-0.0131396617	 1.2112150098	-0.0133624092	 0.404871
C	-1.2687841186	 2.0814523398	 0.1351577658	-0.304611
C	-0.7510921072	 3.4470403889	 0.6115718247	-0.209067
C	 0.6570331067	 3.5532146478	-0.0171086904	-0.209068
C	 1.2160796641	 2.125697068	 0.08024209	-0.30461
H	-1.7272267924	 2.1580891788	-0.8602084876	 0.130313
H	-2.00274211	 1.6023526294	 0.7871493204	 0.126552
H	-1.4024761903	 4.27799844	 0.330448702	 0.104017
H	-0.6690298543	 3.4539019881	 1.7049982096	 0.106339
H	 0.570494983	 3.848827	-1.0694814978	 0.106338
H	 1.2850952759	 4.2977716854	 0.4778572863	 0.104018
H	 1.6760959364	 1.9476232451	 1.0618077102	 0.130315
H	 1.9610195935	 1.8591940383	-0.672992207	 0.126554
93.7027	234.7859	450.7626	470.2233	562.2435	584.8306	706.2976	808.5031	842.2337	898.6449	921.0652	960.3546	970.2989	1033.8034	1143.4821	1163.2779	1168.679	1220.755	1249.5358	1296.0445	1305.8976	1342.6144	1342.8875	1448.7358	1449.2851	1495.9773	1508.5088	1847.5794	3028.9849	3029.551	3037.4515	3043.7044	3096.719	3101.1547	3109.2043	3110.2768
O=C1CCCC1	O=C1CCCC1	
InChI=1S/C5H8O/c6-5-3-1-2-4-5/h1-4H2	InChI=1S/C5H8O/c6-5-3-1-2-4-5/h1-4H2
