12
gdb 3871	7.35938	2.20997	1.70641	3.1067	52.05	-0.1963	0.0428	0.2391	682.1128	0.09348	-352.905052	-352.898648	-352.897704	-352.934777	23.962	
N	 0.0158656717	 1.3505678775	 0.141110792	-0.599753
C	-0.0326019326	-0.0273659152	 0.049735956	 0.419051
N	-1.1314155672	-0.7603661069	 0.0846379903	-0.371545
C	-0.6350331932	-2.0370032666	 0.0487794131	 0.400998
N	-1.4757435947	-3.1308027299	 0.1320893945	-0.58285
N	 0.6794530683	-2.145965959	-0.024670115	-0.309416
N	 1.0568485762	-0.8144187083	-0.023267194	-0.254695
H	 0.7057194433	 1.7939241332	-0.4496963362	 0.253883
H	-0.9004133555	 1.7565455725	 0.0098078309	 0.267544
H	-2.3933382006	-2.9496539481	-0.247608121	 0.25401
H	-1.0642314508	-3.9793255953	-0.2288169844	 0.253789
H	 2.029489445	-0.5710494841	 0.039905674	 0.268985
221.2599	263.6425	286.6615	304.346	343.1512	411.6833	485.8201	627.2782	637.9052	685.2091	741.8005	786.4694	808.8413	1018.6234	1069.7663	1072.1252	1137.8326	1174.1122	1332.8638	1437.9173	1514.5885	1602.5686	1604.4058	1650.5171	1665.2493	3558.1047	3570.814	3657.0562	3676.3101	3686.0248
NC1=NC(N)=NN1	Nc1nc(N)n[nH]1	
InChI=1S/C2H5N5/c3-1-5-2(4)7-6-1/h(H5,3,4,5,6,7)	InChI=1S/C2H5N5/c3-1-5-2(4)7-6-1/h(H5,3,4,5,6,7)
