14
gdb 4671	7.29258	1.299	1.11016	2.9696	66.98	-0.241	-0.0498	0.1911	1016.1315	0.107968	-378.783896	-378.776681	-378.775736	-378.815556	25.662	
C	-0.0126959895	 1.5118718845	 0.0470268455	-0.484219
C	 0.0218774112	 0.0228581056	-0.0338231823	 0.279618
C	-0.0590782569	-0.7807537488	-1.1297048115	-0.19319
N	 0.0230731461	-2.0905939263	-0.655645339	-0.046495
C	-0.0153360857	-3.2641494763	-1.4072202057	 0.181036
O	 0.0606432399	-4.3660704858	-0.9349448851	-0.278349
C	 0.1505962238	-1.9935101266	 0.7190761753	 0.032365
N	 0.153155298	-0.7561819824	 1.1176263228	-0.309582
H	 0.9043816988	 1.8977318275	 0.5045277621	 0.141816
H	-0.1192686456	 1.9601657016	-0.943961765	 0.122081
H	-0.8478852362	 1.8480808056	 0.6704578096	 0.141811
H	-0.164895948	-0.5695224369	-2.1808932505	 0.142978
H	-0.123610027	-3.0570792078	-2.4867321375	 0.105657
H	 0.2337342214	-2.8775153939	 1.3311863514	 0.164473
106.3728	122.9544	195.0226	246.3512	291.8351	340.8123	499.8525	624.2937	681.7607	694.3191	734.4315	807.473	864.9765	961.6011	1017.4077	1035.3806	1040.8024	1066.2322	1187.9908	1248.0497	1281.7991	1309.2074	1406.6896	1430.2168	1443.0863	1473.577	1489.6795	1540.538	1629.4115	1831.0562	2982.8196	3038.6235	3094.6794	3122.8768	3273.2449	3277.1396
CC1=CN(C=O)C=N1	Cc1cn(C=O)cn1	
InChI=1S/C5H6N2O/c1-5-2-7(4-8)3-6-5/h2-4H,1H3	InChI=1S/C5H6N2O/c1-5-2-7(4-8)3-6-5/h2-4H,1H3
