19
gdb 1784	4.84348	1.70169	1.54551	1.3572	67.94	-0.2588	0.0756	0.3343	885.5736	0.170089	-310.907666	-310.899076	-310.898131	-310.939975	31.458	
C	-0.0478840086	 1.4899106778	-0.1425374375	-0.411815
C	 0.0533041086	-0.008621435	 0.0437866552	-0.039164
C	 1.3688052731	-0.7382513894	-0.0994985844	-0.318119
C	 0.6994308772	-0.6539844513	 1.2545579828	 0.36708
C	 1.334996446	 0.1850297031	 2.3471138932	-0.465441
C	 0.0384835919	-1.9148036441	 1.7650670786	-0.139387
O	 1.0323205374	-2.7452988107	 2.3564206716	-0.422274
H	 0.8515501439	 2.0087465506	 0.1996026418	 0.116432
H	-0.18254274	 1.7368793002	-1.2015409586	 0.116695
H	-0.9005533097	 1.9070419107	 0.4054779975	 0.114194
H	-0.8112633698	-0.5454896444	-0.3422545099	 0.075029
H	 1.3882311768	-1.6949227415	-0.6108638003	 0.108476
H	 2.2606258797	-0.1380101558	-0.2520112602	 0.103909
H	 1.8888306314	 1.0364808687	 1.9449806226	 0.109666
H	 0.5783287172	 0.5745303262	 3.0396663198	 0.105951
H	 2.0318634006	-0.4283219251	 2.9250773009	 0.1355
H	-0.7381488524	-1.6514816422	 2.5026426275	 0.08075
H	-0.4616006653	-2.4344515829	 0.9322148416	 0.077564
H	 0.587848072	-3.4703540048	 2.8050072677	 0.284953
96.1704	170.413	179.0651	188.0563	241.927	266.3137	300.0662	370.5738	373.1103	438.183	539.7886	706.3219	790.906	877.2564	904.8706	943.111	973.9516	997.8801	1031.7397	1056.8819	1067.781	1107.8546	1138.5286	1144.3839	1195.2471	1240.7733	1249.1911	1288.0665	1358.8392	1406.6296	1417.8438	1428.606	1460.2952	1484.9367	1494.5694	1495.7324	1500.0492	1516.9488	1519.1152	2955.3183	2987.5398	3026.9815	3031.0884	3085.0272	3095.9652	3105.457	3121.3523	3124.8273	3127.3534	3207.5822	3829.8955
CC1CC1(C)CO	C[C@H]1C[C@]1(C)CO	
InChI=1S/C6H12O/c1-5-3-6(5,2)4-7/h5,7H,3-4H2,1-2H3	InChI=1S/C6H12O/c1-5-3-6(5,2)4-7/h5,7H,3-4H2,1-2H3/t5-,6+/m0/s1
