19
gdb 1996	5.69889	1.48004	1.27191	1.6994	67.79	-0.2627	0.0884	0.3512	987.1741	0.17019	-310.905786	-310.897508	-310.896564	-310.93844	29.939	
C	 0.1054929024	 1.5674384772	 0.1025843521	-0.380061
C	 0.0308249481	 0.0369733531	 0.0073616423	 0.042606
C	 0.6914132633	-0.4655295555	-1.2829995445	-0.390827
C	 0.6538535062	-0.6530890151	 1.2368443846	-0.205983
C	-0.0741088641	-0.386113997	 2.5321140358	 0.093007
C	 0.6045779405	-0.3924350476	 3.8339140136	-0.18347
O	 0.2181995623	 0.837054867	 3.2185242631	-0.231401
H	 1.1490209258	 1.9037553877	 0.1227336892	 0.110792
H	-0.3771014416	 2.0336992319	-0.7629402394	 0.104324
H	-0.3760063517	 1.9434818198	 1.0081113516	 0.136947
H	-1.0309646225	-0.2497600714	-0.0264686759	 0.070236
H	 1.7604602376	-0.2211216137	-1.2953536068	 0.112436
H	 0.5975397535	-1.5519141534	-1.3871395484	 0.106935
H	 0.2369625592	-0.0025461382	-2.1649748514	 0.110586
H	 0.6625484777	-1.7394294948	 1.0714208711	 0.095377
H	 1.7000311695	-0.3401975573	 1.3487407753	 0.098449
H	-1.1383938537	-0.6335980618	 2.5244473672	 0.087114
H	 0.054193524	-0.659285222	 4.7352587454	 0.111765
H	 1.6778308534	-0.5758013691	 3.876433285	 0.111168
64.8332	101.5664	175.6261	221.1835	251.9553	312.2267	331.9563	405.6758	438.5926	483.9105	786.9076	824.8405	855.5819	907.7167	932.0615	944.5157	969.6808	977.5644	1057.6262	1085.6285	1141.2222	1159.2932	1170.7738	1188.9038	1196.0256	1262.4755	1294.6454	1310.9411	1367.0682	1376.8471	1402.5407	1424.0266	1447.772	1465.0621	1486.0786	1493.7394	1504.6331	1508.5863	1532.1859	2990.8782	3010.5932	3022.8993	3031.3678	3053.9878	3079.0921	3084.5632	3087.0644	3092.9171	3098.2856	3125.7768	3165.0823
CC(C)CC1CO1	CC(C)C[C@H]1CO1	
InChI=1S/C6H12O/c1-5(2)3-6-4-7-6/h5-6H,3-4H2,1-2H3	InChI=1S/C6H12O/c1-5(2)3-6-4-7-6/h5-6H,3-4H2,1-2H3/t6-/m0/s1
