16
gdb 986	3.63958	3.07952	1.70321	1.553	67.02	-0.1946	0.0566	0.2512	744.2742	0.137461	-288.688929	-288.68158	-288.680636	-288.720008	26.981	
C	 0.0229970283	 1.5152889214	 0.0095088775	-0.50396
C	 0.0089551732	 0.0165498894	 0.0015565816	 0.201418
C	-0.0223667854	-0.7992256466	-1.1062443353	-0.16815
N	-0.0244554818	-2.1036508379	-0.6794358053	-0.243719
C	 0.0039058861	-2.135096877	 0.6923885775	-0.16815
C	 0.0255874254	-0.8384482036	 1.152742367	 0.201418
C	 0.0601494868	-0.3973980693	 2.5847897591	-0.50396
H	 0.9179426389	 1.9137077959	 0.5036874511	 0.119704
H	 0.0039604869	 1.9166240315	-1.0080982871	 0.115254
H	-0.8415074667	 1.9298738718	 0.5429953945	 0.119691
H	-0.0426258626	-0.5552988502	-2.1569881764	 0.109401
H	-0.044359363	-2.9095193395	-1.27767556	 0.257005
H	 0.0067027113	-3.0706456714	 1.2297096873	 0.109401
H	 0.9507971603	 0.2037851661	 2.8065921434	 0.119702
H	-0.8086919862	 0.2205518823	 2.8438563347	 0.119693
H	 0.0663318585	-1.2557150829	 3.2631778902	 0.115254
114.2735	131.1823	225.8997	240.4983	274.5881	397.9811	432.3942	610.6462	637.8015	651.1861	702.6494	708.16	755.6236	904.6745	1000.2225	1002.2603	1051.6889	1075.7209	1089.2774	1118.63	1206.2107	1257.5988	1338.2194	1391.6143	1415.0637	1424.8622	1472.4521	1478.9179	1486.4013	1490.2668	1505.7912	1563.4966	1628.9416	3015.1184	3016.4929	3058.8532	3059.7687	3099.6587	3101.0351	3252.3545	3255.353	3694.5053
CC1=CNC=C1C	Cc1c[nH]cc1C	
InChI=1S/C6H9N/c1-5-3-7-4-6(5)2/h3-4,7H,1-2H3	InChI=1S/C6H9N/c1-5-3-7-4-6(5)2/h3-4,7H,1-2H3
