19
gdb 1725	4.36195	2.03343	1.88797	1.0526	67.28	-0.242	0.0837	0.3257	798.1851	0.170559	-310.904813	-310.896912	-310.895968	-310.936373	29.589	
C	 0.0995658688	 1.5317465383	-0.0167461231	-0.25136
O	 0.2645707374	 0.1373212727	-0.1463785746	-0.283949
C	 0.6149704805	-0.5522403659	 1.0396621028	 0.445236
C	 1.9976005118	-0.1550592324	 1.5554269733	-0.446558
C	-0.4753203013	-0.6094428332	 2.160098229	-0.267035
C	-0.2648355633	-2.1466139312	 2.2304900483	-0.218452
C	 0.44972977	-2.0818859049	 0.853989832	-0.263062
H	 1.0466586032	 2.0563711964	 0.1737681818	 0.105625
H	-0.3080338984	 1.8922923623	-0.9647454537	 0.124287
H	-0.6056633216	 1.7905807836	 0.7874048706	 0.104148
H	 2.0221472492	 0.883352235	 1.9005892719	 0.113696
H	 2.2881567475	-0.7871013585	 2.4003441017	 0.116861
H	 2.7437934482	-0.2759083983	 0.7634729356	 0.120608
H	-0.3044069664	-0.0285579265	 3.0702975936	 0.090317
H	-1.4561410186	-0.3542503821	 1.7500002346	 0.104756
H	 0.4112675631	-2.4361024625	 3.0392326508	 0.102425
H	-1.1608816983	-2.7665717454	 2.2955150159	 0.100126
H	-0.2341414028	-2.2791383378	 0.0253602288	 0.109856
H	 1.3606658108	-2.6699728498	 0.7166095808	 0.092474
110.9952	142.4387	191.5759	240.4631	269.3258	330.8675	357.6653	419.2833	476.0224	620.449	710.0015	793.996	863.498	901.6818	912.9794	926.2409	938.0892	987.7307	1044.1013	1105.9021	1162.3737	1181.8299	1191.0006	1195.2827	1217.1287	1235.8159	1249.5528	1277.4408	1289.4826	1300.901	1401.0963	1465.6644	1474.3886	1479.1348	1484.111	1491.1853	1503.8638	1507.2248	1512.7574	2984.1653	3030.1624	3036.8162	3054.2549	3061.1366	3068.0994	3103.4425	3103.7738	3108.2322	3108.9805	3115.4552	3128.6734
COC1(C)CCC1	COC1(C)CCC1	
InChI=1S/C6H12O/c1-6(7-2)4-3-5-6/h3-5H2,1-2H3	InChI=1S/C6H12O/c1-6(7-2)4-3-5-6/h3-5H2,1-2H3
