12
gdb 2635	15.94023	0.95568	0.95049	0.4477	52.78	-0.2985	-0.0124	0.2861	1110.9398	0.089019	-360.545832	-360.538439	-360.537495	-360.578559	23.808	
O	 0.1226416084	 0.0335578698	-0.1194521669	-0.257913
C	 0.1513038573	 1.2209827786	-0.2040696678	 0.172071
O	 0.8909242862	 1.9916421075	 0.6269834181	-0.175258
C	 0.8820619864	 3.4012170005	 0.4264008688	-0.085021
C	 2.2836479158	 3.8468218933	-0.0220699447	-0.331534
C	 2.3591375538	 5.2963924877	-0.1768378807	 0.250157
N	 2.3888593701	 6.4452082111	-0.293622683	-0.289612
H	-0.4127012611	 1.8165488878	-0.9485308104	 0.087471
H	 0.1307096445	 3.6858398653	-0.3195357465	 0.135444
H	 0.6175358731	 3.8707726063	 1.3770461371	 0.152128
H	 3.0221161539	 3.5183219771	 0.7162986122	 0.176421
H	 2.5405334316	 3.366901965	-0.9725126261	 0.165646
46.9462	70.1648	133.4009	185.8204	345.7273	375.658	405.1105	506.9549	682.8297	784.112	955.7997	1034.6102	1040.9948	1048.162	1086.1896	1156.6289	1263.5938	1306.4644	1328.7208	1406.4264	1433.0626	1469.2798	1508.0813	1877.6253	2368.3225	2948.0754	3040.8716	3056.7947	3093.6451	3114.9621
O=COCCC#N	O=COCCC#N	
InChI=1S/C4H5NO2/c5-2-1-3-7-4-6/h4H,1,3H2	InChI=1S/C4H5NO2/c5-2-1-3-7-4-6/h4H,1,3H2
