17
gdb 1282	7.6951	1.16141	1.0356	3.4626	62.56	-0.2438	-0.0092	0.2346	1145.1515	0.144657	-346.865957	-346.856961	-346.856017	-346.900596	29.766	
C	-0.0133654375	 1.4920135102	-0.0123732316	-0.384141
C	-0.0393952631	-0.0255900622	-0.0639102398	-0.02809
O	 0.7189655863	-0.4475338458	-1.1814228616	-0.220481
C	 0.7694023662	-1.8319108012	-1.3226280126	-0.151526
C	 1.6242699072	-2.2191386795	-2.5275110577	 0.359555
C	 1.6515714888	-3.7072434882	-2.8372437151	-0.482947
O	 2.2248215909	-1.4054636212	-3.1817761949	-0.269687
H	 1.0143474049	 1.8534222311	 0.0808486594	 0.132228
H	-0.4422288805	 1.9132068539	-0.9257496728	 0.131362
H	-0.5904865756	 1.8537430999	 0.8438103077	 0.113824
H	 0.380112979	-0.4537204106	 0.8627026921	 0.085852
H	-1.0761876915	-0.3945237976	-0.1466386544	 0.085513
H	 1.2016484937	-2.3228263931	-0.4294095991	 0.103367
H	-0.2371302201	-2.2738487813	-1.4494829564	 0.10038
H	 1.8308538189	-4.3019054921	-1.9351827913	 0.133241
H	 0.6809285469	-4.0193655783	-3.2405268964	 0.144297
H	 2.4254283555	-3.911224464	-3.5779630255	 0.147255
41.5204	76.6029	91.3845	127.2842	144.6794	245.9176	304.7648	333.9017	474.1776	481.1254	598.9866	822.0108	830.7786	866.0504	895.1191	965.6565	1058.8713	1094.9698	1152.3346	1173.8326	1188.7209	1204.9522	1260.554	1296.9679	1377.0469	1384.8471	1405.5359	1437.5224	1463.8668	1477.4692	1483.2426	1487.9398	1500.0675	1532.2024	1836.5485	2924.7439	2943.004	2953.1453	2975.9893	3036.6117	3047.3238	3097.6107	3121.6295	3126.0458	3153.663
CCOCC(C)=O	CCOCC(=O)C	
InChI=1S/C5H10O2/c1-3-7-4-5(2)6/h3-4H2,1-2H3	InChI=1S/C5H10O2/c1-3-7-4-5(2)6/h3-4H2,1-2H3
