14
gdb 397	8.07928	1.9819	1.70664	1.7715	45.75	-0.2606	0.049	0.3096	694.4975	0.118969	-344.689237	-344.682195	-344.681251	-344.719856	25.116	
O	 0.0534459977	 1.3855206475	-0.0483502759	-0.420306
C	 0.090672885	-0.02427995	 0.0009634316	-0.066445
C	-1.3143347482	-0.6097052004	 0.1084301971	 0.071015
O	-2.1275563541	-0.1112176904	-0.9708537722	-0.446614
C	-1.370450465	-2.1344432404	 0.1273057681	-0.066432
O	-2.7028133184	-2.5950950224	 0.1902416531	-0.420306
H	-0.6985055819	 1.6092839301	-0.6113255992	 0.286453
H	 0.5918790973	-0.446109416	-0.890655576	 0.075205
H	 0.6893082858	-0.3083808564	 0.8734678296	 0.114647
H	-1.7997528783	-0.2196340616	 1.0095204012	 0.111077
H	-1.738912562	-0.4297198957	-1.796481748	 0.285398
H	-0.8494195783	-2.5274155846	-0.766133536	 0.075206
H	-0.8446609735	-2.5239708247	 1.006027735	 0.114645
H	-3.2090969661	-2.0163900551	-0.3938978184	 0.286456
121.6692	144.9866	190.6738	303.8647	376.803	402.2459	454.6999	468.0595	519.4396	594.5039	848.9444	907.2001	1047.9204	1061.5894	1095.022	1099.7904	1119.9875	1200.9111	1216.0851	1275.3359	1310.3147	1372.992	1386.2024	1423.0551	1440.1856	1449.8125	1502.3488	1511.788	2922.1337	2935.2098	3063.6753	3063.6922	3079.1209	3761.3012	3772.8278	3777.1045
OCC(O)CO	OCC(O)CO	
InChI=1S/C3H8O3/c4-1-3(6)2-5/h3-6H,1-2H2	InChI=1S/C3H8O3/c4-1-3(6)2-5/h3-6H,1-2H2
