12
gdb 1402	7.27191	1.44333	1.25556	2.8469	56.6	-0.2811	0.0024	0.2835	879.0547	0.087935	-323.345161	-323.337545	-323.336601	-323.376993	26.433	
O	-0.0793007482	 1.4460391937	 0.0379188857	-0.394978
C	 0.021091571	 0.0424227257	 0.0138830562	-0.009615
C	 0.6826239868	-0.5079457447	-1.2769598076	-0.380333
C	-0.0460772495	-0.1191999158	-2.4746553965	 0.301188
C	-0.6596170584	 0.1969028461	-3.4573673427	-0.420501
C	 0.7479119953	-0.4680768975	 1.1970830287	 0.255924
N	 1.3454954414	-0.8493372114	 2.1095495464	-0.310413
H	 0.8092048255	 1.8206706479	 0.0152147497	 0.297703
H	-1.0089339882	-0.3247130315	 0.062148334	 0.155638
H	 1.718318032	-0.1464753755	-1.3209866048	 0.142722
H	 0.7422747973	-1.6003759011	-1.200356901	 0.156935
H	-1.197227845	 0.4767682541	-4.3295558482	 0.205729
73.2298	121.6459	189.41	243.1575	322.9167	345.5357	362.4526	496.8899	553.9155	589.9738	632.2821	660.5218	859.9522	925.1471	973.6609	1031.8791	1102.6057	1193.0015	1280.1513	1322.6801	1358.1963	1421.5807	1465.3558	2246.7492	2355.7863	3025.3558	3061.496	3080.7966	3504.922	3797.9031
OC(CC#C)C#N	O[C@@H](CC#C)C#N	
InChI=1S/C5H5NO/c1-2-3-5(7)4-6/h1,5,7H,3H2	InChI=1S/C5H5NO/c1-2-3-5(7)4-6/h1,5,7H,3H2/t5-/m0/s1
