15
gdb 2421	4.36498	3.39908	2.492	1.2949	60.96	-0.2222	0.0692	0.2914	594.1535	0.126476	-304.583737	-304.578036	-304.577091	-304.612815	22.736	
C	-0.0001294162	 1.4600451855	-0.037440492	-0.529066
C	 0.0113465204	-0.0363876668	-0.0485736883	 0.376254
N	 0.61365316	-0.8774672341	-1.1416432139	-0.379764
C	 0.0841677095	-1.8835690218	-0.1649251579	-0.038629
C	 0.5185508345	-1.0172685238	 1.0559369073	-0.046774
N	-0.8135811571	-1.0262663602	 1.7450680944	-0.351747
C	-1.1539445078	-1.036386323	 0.2846980292	-0.078644
H	 1.0160580001	 1.8545819937	-0.1344212864	 0.132185
H	-0.6007660617	 1.8588654283	-0.8623103151	 0.119115
H	-0.4291506302	 1.8165490643	 0.9038671089	 0.143627
H	 0.0167822615	-0.8483087487	-1.9737043567	 0.202774
H	 0.1702856571	-2.9630707976	-0.3035977138	 0.078652
H	 1.4754930127	-1.0052407516	 1.5780443988	 0.087397
H	-0.9899528112	-1.9478070386	 2.1541482685	 0.208068
H	-2.1775580615	-1.0466261155	-0.0977209129	 0.076551
219.5204	247.1628	292.4286	486.9391	502.4614	652.2134	734.6609	774.9539	818.848	830.9451	859.1091	893.0514	925.5868	950.9012	995.3754	1065.1322	1091.5381	1093.6145	1100.9289	1150.4856	1155.9014	1204.0597	1211.5904	1261.7338	1273.9901	1294.5663	1309.8927	1380.5432	1415.5813	1483.6279	1491.1144	3034.0994	3085.0482	3099.7666	3100.4266	3117.7562	3121.5862	3388.9309	3400.68
CC12NC3C1NC23	C[C@@]12N[C@H]3[C@@H]1N[C@@H]23	
InChI=1S/C5H8N2/c1-5-3-2(7-5)4(5)6-3/h2-4,6-7H,1H3	InChI=1S/C5H8N2/c1-5-3-2(7-5)4(5)6-3/h2-4,6-7H,1H3/t2-,3-,4+,5+
