15
gdb 1645	5.14214	1.83219	1.37519	1.8503	59.4	-0.2473	-0.0499	0.1974	865.4784	0.124026	-341.869909	-341.861822	-341.860877	-341.902543	28.553	
C	 0.0088317486	 1.5296334411	-0.0210896608	-0.383587
C	-0.0453957504	 0.0057853012	-0.0839112238	-0.274502
C	-1.4525886398	-0.5411278509	-0.0429740829	 0.384736
O	-2.4408919765	 0.161985399	 0.0019870966	-0.326123
C	-1.6203625676	-2.0588289238	-0.0519784038	 0.258951
N	-2.9304043655	-2.4294877102	-0.1458897231	-0.533234
N	-0.5673244283	-2.7854522588	 0.0055857504	-0.508665
H	 1.0450499821	 1.8764357094	-0.0584725798	 0.111949
H	-0.5358661462	 1.9788603837	-0.8557972058	 0.128305
H	-0.4458819606	 1.9028666799	 0.9006114036	 0.127087
H	 0.4306124772	-0.3839804156	-0.9924074914	 0.140755
H	 0.5177279123	-0.4648450586	 0.7299395591	 0.146125
H	-3.607541059	-1.6935901793	-0.0103418912	 0.27023
H	-3.2027956471	-3.3739347054	 0.0658717885	 0.252391
H	-0.7950279891	-3.7823887917	 0.0013344745	 0.205582
55.9089	80.6756	199.39	202.2376	309.825	326.9234	391.3327	411.4576	523.5563	546.2415	608.7754	656.5207	758.7669	821.4403	879.8675	990.0191	1041.0581	1090.766	1097.3036	1130.7797	1154.0029	1260.8908	1363.919	1415.8994	1432.9005	1436.0074	1494.763	1499.0271	1598.8209	1718.907	1789.119	3047.4848	3049.9299	3074.3757	3121.4941	3123.1063	3441.6067	3580.6129	3715.5394
CCC(=O)C(N)=N	CCC(=O)C(=N)N	
InChI=1S/C4H8N2O/c1-2-3(7)4(5)6/h2H2,1H3,(H3,5,6)	InChI=1S/C4H8N2O/c1-2-3(7)4(5)6/h2H2,1H3,(H3,5,6)
