15
gdb 1715	4.7079	2.13499	1.91552	2.3577	57.78	-0.2656	-0.0352	0.2304	716.0438	0.124213	-345.655534	-345.648676	-345.647731	-345.686216	25.586	
O	 0.2400848046	 1.5085614093	-0.2520855042	-0.481064
C	-0.0116942596	 0.1707728713	 0.0283969179	 0.346164
C	 0.1445556267	-0.2942381535	 1.5176168613	-0.277119
C	-1.1758570789	-1.0961812062	 1.3856315622	-0.217669
C	-1.5119507974	-0.2769407942	 0.1128885592	-0.27712
C	 0.7732754807	-0.712174005	-0.9081217626	 0.119225
O	 1.50061852	-0.2580035379	-1.7598384292	-0.28267
H	 0.8680600068	 1.5136367719	-0.9928050547	 0.290118
H	 1.0563381066	-0.828325143	 1.7978807818	 0.105075
H	 0.0357665336	 0.5836749478	 2.158217094	 0.127535
H	-1.0015000647	-2.1531780985	 1.1670086367	 0.107672
H	-1.8799294033	-1.0315235246	 2.2166944054	 0.110619
H	-2.115483	 0.6061306683	 0.3339592436	 0.127529
H	-1.943820804	-0.7970024269	-0.7462768305	 0.105065
H	 0.6488223788	-1.8064164587	-0.775310651	 0.096641
116.4203	137.2605	291.6058	297.8097	372.951	398.0225	514.0561	518.046	671.9599	783.6372	824.997	849.7658	903.2386	911.1844	937.3254	984.4934	1040.8789	1080.2855	1129.3754	1203.922	1212.001	1239.9571	1256.9712	1271.6125	1315.3217	1390.9574	1442.3163	1467.8802	1484.9534	1505.6972	1805.9137	2927.5638	3061.3239	3061.5318	3068.677	3110.305	3122.7532	3132.2597	3678.1715
OC1(CCC1)C=O	OC1(CCC1)C=O	
InChI=1S/C5H8O2/c6-4-5(7)2-1-3-5/h4,7H,1-3H2	InChI=1S/C5H8O2/c6-4-5(7)2-1-3-5/h4,7H,1-3H2
