10
gdb 3928	8.67861	2.15306	1.72509	3.4428	49.35	-0.2798	-0.0717	0.2081	642.5149	0.068393	-355.518342	-355.512942	-355.511998	-355.54774	18.643	
O	-0.0900576494	-0.0482732274	 0.0002421325	-0.258213
C	-0.0494688371	 1.1488660643	 0.0087583265	 0.185499
N	 1.146232766	 1.8818489011	 0.0003646421	-0.075402
C	 2.4421866831	 1.3991261526	-0.0181400988	 0.054137
N	 3.2941271961	 2.3790051162	-0.0204236748	-0.208207
N	 2.5661938066	 3.5712746583	-0.0034273807	-0.207792
C	 1.3078853445	 3.2550348037	 0.0083631858	 0.044742
H	-0.9349863358	 1.8068588138	 0.0234261405	 0.120846
H	 2.6638521907	 0.3447187029	-0.0284067114	 0.18054
H	 0.4769594653	 3.9434503545	 0.0228321281	 0.16385
140.1574	219.8106	251.5147	517.9314	635.2781	679.2501	802.0695	834.6185	875.7293	945.1233	981.6441	1034.1474	1063.9212	1206.3092	1229.5138	1297.3664	1398.5022	1438.3258	1531.7644	1539.5143	1840.945	2998.8006	3267.3355	3291.6205
O=CN1C=NN=C1	O=Cn1cnnc1	
InChI=1S/C3H3N3O/c7-3-6-1-4-5-2-6/h1-3H	InChI=1S/C3H3N3O/c7-3-6-1-4-5-2-6/h1-3H
