16
gdb 3177	5.53989	2.25827	1.9113	1.5348	60.04	-0.2396	0.075	0.3146	703.8903	0.138827	-325.748612	-325.742299	-325.741355	-325.779277	23.716	
C	 0.137200747	 1.5278293443	-0.0465061974	-0.297309
N	 1.2824148147	 0.6036508177	 0.0752927097	-0.345407
C	-0.0838552871	 0.066600066	 0.0226903421	 0.328933
C	-0.5921125176	-0.7002650175	 1.2482661921	-0.296767
C	-1.3597156948	-1.8804955628	 0.6180971098	-0.078767
O	-0.8200638955	-2.0393911836	-0.6903644046	-0.241611
C	-0.5935177368	-0.7301478368	-1.178444699	-0.149937
H	-0.0432352968	 2.1515997873	 0.8253553763	 0.118056
H	-0.0331451603	 2.0286944138	-0.9978581994	 0.108847
H	 1.740681132	 0.4988726806	-0.827361199	 0.226841
H	 0.2633306009	-1.0419765812	 1.8357455791	 0.126126
H	-1.2298290004	-0.0923850007	 1.8954490274	 0.105027
H	-1.2317781472	-2.8266722687	 1.1485639829	 0.112784
H	-2.437988937	-1.6585451463	 0.5599932734	 0.088747
H	-1.5307590198	-0.2908799924	-1.5634691617	 0.089771
H	 0.1244052685	-0.7863737997	-2.0031290618	 0.104665
45.5768	238.8764	289.8368	369.7931	400.4602	504.1897	657.2072	770.1552	816.3459	871.7298	896.2732	935.8485	952.6755	970.7471	977.9969	1040.6383	1066.0177	1103.2529	1119.1668	1146.8592	1216.0218	1222.1287	1264.5757	1269.3723	1293.5211	1300.6383	1343.533	1381.6106	1420.9671	1488.9235	1501.454	1515.6743	1520.7834	2946.5153	2969.7728	3064.9937	3070.9498	3094.1135	3099.2909	3115.9343	3177.5051	3486.301
C1NC11CCOC1	C1N[C@]21CCOC2	
InChI=1S/C5H9NO/c1-2-7-4-5(1)3-6-5/h6H,1-4H2	InChI=1S/C5H9NO/c1-2-7-4-5(1)3-6-5/h6H,1-4H2/t5-/m0/s1
