12
gdb 3775	7.88899	2.13033	1.69512	3.2942	53.98	-0.2201	0.0006	0.2207	696.2656	0.090384	-356.677429	-356.670767	-356.669823	-356.709383	22.532	
C	-0.0412225728	 1.4227439525	 0.0462852305	-0.322158
N	-0.0507764247	-0.0329541339	 0.0094338269	-0.385419
C	 0.5287553701	-0.6027145084	-0.9502935115	 0.548138
N	 0.6339992138	-1.9732607363	-1.164873204	-0.365914
C	 1.3502113321	-2.1574902469	-2.3074631538	 0.08289
N	 1.7172829741	-1.055912267	-2.8650435095	-0.126138
O	 1.1962383521	-0.0349851589	-2.0117804071	-0.251995
H	 0.9669142575	 1.8423046919	-0.0707888773	 0.122182
H	-0.6681334024	 1.8544108377	-0.7456780304	 0.122064
H	-0.4411766668	 1.7536490254	 1.0076915598	 0.119936
H	 0.2499880474	-2.6660855961	-0.5477845866	 0.288302
H	 1.5914191596	-3.1275184801	-2.7155368771	 0.168112
18.4319	150.8503	200.8763	267.6073	391.5662	511.2235	609.7846	694.18	723.4631	878.418	888.7969	922.8182	941.8927	1070.9571	1123.4251	1128.8183	1154.3287	1208.3682	1315.6261	1439.6746	1448.3061	1490.8525	1502.3051	1651.1671	1818.8738	3000.2402	3049.6141	3104.7799	3264.3834	3702.199	18.4579	150.8502	200.8764	267.6076	391.566	511.2234	609.7843	694.1802	723.463	878.4172	888.7966	922.8182	941.8925	1070.9572	1123.4248	1128.8182	1154.3281	1208.3679	1315.6259	1439.6745	1448.3056	1490.8518	1502.3042	1651.1669	1818.874	3000.2402	3049.6141	3104.7799	3264.3834	3702.199
CN=C1NC=NO1	CN=c1[nH]cno1	
InChI=1S/C3H5N3O/c1-4-3-5-2-6-7-3/h2H,1H3,(H,4,5,6)	InChI=1S/C3H5N3O/c1-4-3-5-2-6-7-3/h2H,1H3,(H,4,5,6)
