16
gdb 4543	3.94779	1.73205	1.22226	2.1404	67.9	-0.1945	0.0525	0.247	976.2318	0.130875	-379.972694	-379.964421	-379.963477	-380.005705	29.446	
C	-0.0691030968	 1.4863338782	 0.015405094	-0.345941
N	 0.0055975337	 0.0411419211	-0.0197357723	-0.048013
C	-0.0389746581	-0.7841426777	-1.1446112573	-0.219827
C	 0.0584166965	-2.0649566836	-0.682373446	 0.278597
C	 0.0634514848	-3.3403472742	-1.457619649	-0.484732
N	 0.1621809828	-2.0633922597	 0.7042853136	-0.425374
C	 0.1250029376	-0.8008948589	 1.0363524566	 0.433435
O	 0.1936386959	-0.3016417538	 2.2856004368	-0.431453
H	 0.7470835884	 1.9324986152	-0.5619578129	 0.138905
H	-1.0220996854	 1.8390519043	-0.3924731879	 0.138875
H	 0.0127895964	 1.8150343864	 1.0515067046	 0.163069
H	-0.1326920991	-0.3728635232	-2.1360545216	 0.11691
H	 0.9887615233	-3.9025809668	-1.2888176814	 0.128901
H	-0.7651146512	-3.9905614206	-1.1551218294	 0.128924
H	-0.0279821326	-3.1474908372	-2.5300566214	 0.114626
H	 0.2761615238	-1.0652619897	 2.8700084437	 0.313098
52.4885	129.3975	148.2036	224.9134	262.2951	296.3488	340.6173	398.1904	509.622	600.2116	649.5226	670.7354	677.0162	727.6662	840.4019	994.098	1023.8127	1063.8014	1069.4153	1154.2759	1175.4574	1200.2318	1290.9306	1337.3329	1362.6406	1418.6705	1455.1804	1474.6966	1490.346	1491.454	1510.3919	1593.1451	1600.7514	1623.4301	3029.933	3036.542	3081.5139	3092.0038	3113.7048	3155.9635	3269.6584	3810.5161
CN1C=C(C)N=C1O	Cn1cc(C)nc1O	
InChI=1S/C5H8N2O/c1-4-3-7(2)5(8)6-4/h3H,1-2H3,(H,6,8)	InChI=1S/C5H8N2O/c1-4-3-7(2)5(8)6-4/h3H,1-2H3,(H,6,8)
