7
gdb 171	10.42602	9.84405	5.06334	3.4411	32.49	-0.2862	-0.044	0.2422	256.5774	0.045382	-262.035127	-262.031571	-262.030627	-262.061292	11.821	
O	-0.0140710953	 1.3173135051	 0.0093144316	-0.15891
C	 1.2570254917	 1.7002859793	-0.0008207948	 0.04514
C	 2.0502071703	 0.5996642575	-0.0143590676	-0.108628
N	 1.2049691483	-0.4873193738	-0.0121534148	-0.10536
N	 0.0049878097	-0.1217753109	 0.001418111	 0.006661
H	 1.4553239971	 2.7596429331	 0.0029861861	 0.172794
H	 3.1210842982	 0.4964388897	-0.0251924416	 0.148302
589.6053	628.6708	702.6216	815.7846	873.7748	950.2507	982.4455	1108.1186	1146.6287	1159.0956	1372.2279	1452.0916	1550.6887	3281.5329	3307.0223
O1C=CN=N1	o1ccnn1	
InChI=1S/C2H2N2O/c1-2-5-4-3-1/h1-2H	InChI=1S/C2H2N2O/c1-2-5-4-3-1/h1-2H
