19
gdb 2096	4.48415	2.28522	1.66068	0.2528	72.85	-0.2348	0.0303	0.2651	808.9754	0.173791	-273.81078	-273.803865	-273.802921	-273.841271	27.117	
C	-0.0474171716	 1.5625342276	 0.0088609556	-0.399382
C	 0.0173671382	 0.0278536607	 0.0066914129	 0.002967
C	 0.675423252	-0.5103964089	-1.2752292638	-0.190256
C	 0.9864746365	-2.0070982972	-1.1635071603	-0.2108
C	 1.9654557348	-2.2785978457	-0.01155306	-0.235525
C	 1.6059079226	-1.4962582801	 1.2255288725	-0.066762
C	 0.7309709432	-0.4909358107	 1.2343473616	-0.035865
H	 0.9589970894	 1.9955908555	-0.0040777482	 0.115781
H	-0.5860157635	 1.9336933343	-0.8696392976	 0.108947
H	-0.5607636014	 1.9378396549	 0.9006270733	 0.109135
H	-1.0211446155	-0.3405045857	 0.0380371561	 0.077808
H	 0.0277668504	-0.3124120877	-2.1371295328	 0.087063
H	 1.6097166256	 0.0407203643	-1.4519104159	 0.09239
H	 0.0531975082	-2.5552038211	-0.9798126351	 0.097054
H	 1.3940662996	-2.3883750751	-2.1060319975	 0.088721
H	 1.9903703224	-3.3505973667	 0.2227091827	 0.09906
H	 2.9916288083	-2.0254130004	-0.3188215698	 0.104545
H	 2.0954630543	-1.7892055024	 2.1519880482	 0.079729
H	 0.5050698763	 0.0147690841	 2.1719266182	 0.075392
112.1195	234.7726	268.0766	290.3225	337.051	442.5169	465.0726	540.0975	680.0834	735.0677	786.6366	865.2158	877.0101	903.2768	968.9815	986.9202	997.6919	1008.7262	1071.3228	1081.1109	1117.7269	1129.9365	1164.7625	1231.5466	1251.882	1278.7759	1324.8837	1340.0658	1369.8803	1373.4544	1379.0829	1405.0716	1426.6737	1475.3742	1488.4179	1495.8533	1498.652	1500.7659	1721.9379	2964.9709	2993.2982	3010.9773	3020.0932	3026.3498	3038.2213	3060.1634	3069.0834	3095.7167	3097.5175	3127.9494	3154.3966
CC1CCCC=C1	C[C@H]1CCCC=C1	
InChI=1S/C7H12/c1-7-5-3-2-4-6-7/h3,5,7H,2,4,6H2,1H3	InChI=1S/C7H12/c1-7-5-3-2-4-6-7/h3,5,7H,2,4,6H2,1H3/t7-/m1/s1
