17
gdb 4118	2.80884	1.84273	1.23391	1.0848	67.84	-0.2502	-0.0035	0.2467	991.9667	0.140452	-400.945283	-400.936742	-400.935798	-400.978167	31.538	
C	-0.7089890769	 1.3353035945	 0.2876677621	-0.39859
C	-0.0294134334	 0.0229225463	-0.0798988558	-0.066174
C	 0.9920856226	-0.0068211693	-1.2688733226	-0.261195
C	 1.9729541672	-0.8519570724	-0.4030490914	 0.069055
O	 3.3078187423	-0.4179082872	-0.3976842623	-0.439951
C	 1.1095499102	-0.4749968883	 0.7902254924	 0.366855
N	 1.3118383869	-0.358802868	 2.0341228533	-0.246387
O	 2.5995377566	-0.8652759615	 2.3659871908	-0.409437
H	 0.0297674867	 2.1316329311	 0.4203721452	 0.122963
H	-1.4079446462	 1.6426588705	-0.4970003744	 0.117097
H	-1.2675879235	 1.2372534461	 1.2232076208	 0.130779
H	-0.7804735145	-0.7670959788	-0.2039450706	 0.096164
H	 0.6545554445	-0.444533901	-2.2091116016	 0.104768
H	 1.4231471537	 0.9802101465	-1.4518638188	 0.121411
H	 1.8912194671	-1.9266765055	-0.6329554708	 0.08452
H	 3.6504324833	-0.6044395893	 0.4853414358	 0.297559
H	 2.6695682035	-0.6522490138	 3.3022049279	 0.310564
71.485	152.1122	176.6909	216.193	267.8646	323.2546	347.9929	386.3264	420.9898	428.6747	515.2465	610.5357	665.1662	800.3716	837.7574	920.2344	934.6244	939.8033	1004.6301	1074.2125	1090.7207	1149.5794	1164.0426	1173.8775	1224.9536	1254.7943	1268.8332	1337.4061	1363.0279	1389.7133	1402.584	1409.4211	1479.8768	1492.4823	1497.4153	1778.6022	2967.2433	3029.0554	3036.9697	3075.8342	3107.8857	3113.3596	3139.3147	3782.2117	3827.7692
CC1CC(O)C1=NO	C[C@H]1C[C@@H](O)[C]1[N]O	
InChI=1S/C5H9NO2/c1-3-2-4(7)5(3)6-8/h3-4,7-8H,2H2,1H3	InChI=1S/C5H9NO2/c1-3-2-4(7)5(3)6-8/h3-4,7-8H,2H2,1H3/t3-,4+/m0/s1
