15
gdb 3591	4.95692	3.1648	2.57216	1.4066	58.88	-0.2316	0.0819	0.3135	581.0011	0.126954	-308.478846	-308.473549	-308.472605	-308.507511	21.918	
C	-0.023856991	 1.5046319006	 0.060169445	-0.325801
C	 1.2979189894	 0.7839915131	 0.0208307868	 0.107992
O	 1.9813016312	 0.5453035022	 1.2289138942	-0.257977
C	 1.3191214606	-0.4492047287	 1.9744892356	 0.107997
C	 0.0039991748	-0.116692216	 2.6286026639	-0.325805
C	 0.030470386	-0.8201059729	 1.2836474188	-0.073863
C	 0.0165619545	-0.011786981	 0.003164776	-0.073857
H	-0.3265296174	 2.0064334038	 0.9710809283	 0.12013
H	-0.3263593666	 2.0148057	-0.8489442935	 0.111574
H	 1.9669390745	 0.8992464317	-0.8254065756	 0.097788
H	 2.0022777149	-1.1569481703	 2.4320794036	 0.097789
H	-0.2792703565	-0.7208373646	 3.4847804307	 0.111573
H	-0.3079505634	 0.9184477608	 2.6945400739	 0.120128
H	-0.3123610178	-1.845771349	 1.2237326617	 0.091166
H	-0.3353772931	-0.5104070697	-0.8916151493	 0.091167
263.4281	276.523	469.891	500.0714	698.2494	710.4026	720.5676	773.4263	799.2985	826.8618	880.7853	962.1257	965.686	979.1443	979.2469	1038.1843	1038.6841	1074.283	1095.1613	1096.1148	1099.5924	1123.4501	1164.7162	1198.4858	1212.5931	1303.593	1339.4763	1372.4966	1388.5675	1465.115	1493.3309	3133.4927	3137.9051	3161.3346	3165.5701	3177.1147	3190.1039	3222.6334	3228.8523
C1C2OC3CC3C12	C1[C@H]2O[C@H]3C[C@H]3[C@@H]12	
InChI=1S/C6H8O/c1-3-4-2-6(4)7-5(1)3/h3-6H,1-2H2	InChI=1S/C6H8O/c1-3-4-2-6(4)7-5(1)3/h3-6H,1-2H2/t3-,4+,5-,6+
