14
gdb 3036	11.03931	1.1156	1.08409	4.048	58.28	-0.2835	0.0344	0.3179	1029.4733	0.113107	-324.569867	-324.562673	-324.561729	-324.601867	24.628	
N	-0.0733103881	-1.1120903847	-0.0871399089	-0.302845
C	-0.0118878307	 0.0413256517	-0.1209415642	 0.254839
C	 0.0895342902	 1.4977065891	-0.1515499833	-0.329426
C	 1.4690411309	 2.0052129552	 0.3217320517	-0.219408
C	 1.5282904436	 3.5122617282	 0.2784051216	 0.086091
C	 2.7144680097	 4.2370713307	-0.1909195033	-0.177636
O	 1.5621910107	 4.0995085107	-1.0253372345	-0.234486
H	-0.0937114829	 1.8475371472	-1.1730643349	 0.172434
H	-0.7065533285	 1.9154838796	 0.4759944284	 0.152065
H	 1.66210282	 1.656209824	 1.3420746169	 0.127
H	 2.2483420751	 1.5868459582	-0.3220674364	 0.129304
H	 0.8615125285	 4.0269391457	 0.9737626637	 0.09854
H	 2.9120154245	 5.2445170262	 0.1715630168	 0.122544
H	 3.5922471172	 3.6772945484	-0.5107623635	 0.120984
69.0785	89.8869	134.569	238.7708	371.8567	405.3351	466.0219	542.4102	762.0606	809.0279	873.7139	926.9381	965.2895	1001.518	1031.8646	1099.293	1122.6778	1161.531	1171.1237	1220.1603	1277.5425	1296.8435	1314.2617	1369.0329	1447.6248	1467.9418	1482.6177	1530.1519	2363.6301	3042.8001	3053.0309	3080.4185	3086.241	3089.0975	3109.1073	3174.6329
N#CCCC1CO1	N#CCC[C@H]1CO1	
InChI=1S/C5H7NO/c6-3-1-2-5-4-7-5/h5H,1-2,4H2	InChI=1S/C5H7NO/c6-3-1-2-5-4-7-5/h5H,1-2,4H2/t5-/m0/s1
