12
gdb 241	7.62965	2.075	1.80193	2.6833	48.15	-0.2505	-0.0381	0.2124	667.8025	0.09322	-306.397642	-306.390688	-306.389744	-306.429362	22.667	
C	 0.3225777668	 1.4304263841	-0.0922944844	-0.478125
C	-0.3002335824	 0.0671667815	 0.1116940418	 0.375628
O	-0.5652267088	-0.3802184951	 1.2028567809	-0.296576
C	-0.5740198132	-0.7603812015	-1.1482441393	-0.374122
C	 0.0320482589	-2.1519002419	-1.025271145	 0.163408
O	 0.639253184	-2.6971967565	-1.9074994001	-0.232084
H	 1.2872642933	 1.3271373671	-0.6031420663	 0.150144
H	-0.3128958085	 2.0429605167	-0.7423246233	 0.145676
H	 0.4617675018	 1.9274500103	 0.8682826449	 0.148598
H	-1.6635005322	-0.8919970928	-1.2049406139	 0.159273
H	-0.2293008086	-0.2876329207	-2.0698014258	 0.127608
H	-0.1347613911	-2.6262836014	-0.0366112796	 0.110572
37.0759	103.8423	158.9259	218.1992	363.286	464.0375	512.1742	588.9574	743.8967	861.6382	914.5884	960.5045	1068.5321	1086.3818	1156.3401	1204.3439	1295.6697	1382.2114	1406.5121	1442.005	1461.162	1473.1418	1803.6735	1841.7286	2933.1767	3030.6952	3033.6079	3093.185	3123.9267	3155.2148
CC(=O)CC=O	CC(=O)CC=O	
InChI=1S/C4H6O2/c1-4(6)2-3-5/h3H,2H2,1H3	InChI=1S/C4H6O2/c1-4(6)2-3-5/h3H,2H2,1H3
