14
gdb 2786	4.26383	2.43646	1.65605	2.6694	54.88	-0.2332	0.0234	0.2566	736.4831	0.113228	-361.715983	-361.70882	-361.707876	-361.747401	24.778	
C	-0.0235219268	 1.3403099806	 0.239900523	-0.248271
O	-0.0551788801	 0.0390358399	-0.327745635	-0.242626
C	-1.2848846478	-0.5958383482	-0.1550509364	-0.007531
C	-1.291742324	-2.0702939902	-0.6406795063	-0.190082
N	-1.6691645991	-2.4487880913	 0.726089242	-0.326528
C	-1.5761176447	-1.1895153469	 1.2649142456	 0.408277
O	-1.6626844418	-0.7620620566	 2.3856162682	-0.361631
H	 0.9757826207	 1.7401574748	 0.056063057	 0.128961
H	-0.7663778544	 1.9985364288	-0.2364058993	 0.106872
H	-0.2167901179	 1.3123196817	 1.3183136653	 0.146218
H	-2.1181784663	 0.0103776883	-0.5415590336	 0.089845
H	-2.0329100516	-2.3248617515	-1.4033708011	 0.115429
H	-0.2977842608	-2.4092922289	-0.9457630928	 0.12802
H	-1.7748363756	-3.3521204005	 1.1638711534	 0.253048
99.4694	125.4962	172.4566	240.6625	261.9331	393.7941	476.5044	512.3639	719.0279	757.7654	849.7467	924.8997	988.1279	1035.9786	1087.6965	1155.3178	1169.4116	1178.8169	1184.6417	1220.1495	1245.3822	1298.3095	1361.2128	1401.8356	1481.2643	1487.3868	1513.503	1521.0012	1887.6275	2987.6034	2995.3541	3052.3771	3069.3687	3106.4347	3129.259	3609.3451
COC1CNC1=O	CO[C@H]1CNC1=O	
InChI=1S/C4H7NO2/c1-7-3-2-5-4(3)6/h3H,2H2,1H3,(H,5,6)	InChI=1S/C4H7NO2/c1-7-3-2-5-4(3)6/h3H,2H2,1H3,(H,5,6)/t3-/m0/s1
