16
gdb 3325	5.38134	2.11813	1.79228	2.4251	59.69	-0.24	0.0706	0.3106	731.717	0.137909	-325.718957	-325.712366	-325.711421	-325.749432	24.962	
O	 0.8465312212	-0.6367615804	-1.0353200068	-0.422482
C	 0.1530861604	-0.0022885587	 0.0241535707	-0.069407
C	-1.3103235237	-0.4014175083	 0.0231595746	 0.053122
C	-2.354357859	 0.3003354751	 0.9332113388	-0.294109
C	-3.0972298828	 0.6483408045	-0.3561098325	-0.00224
C	-2.2361562291	 1.428243714	-1.2587712585	-0.243752
N	-2.0718679272	-0.0435545092	-1.2424969186	-0.16354
H	 0.3030174749	-0.5308457417	-1.8252774257	 0.295603
H	 0.6258353161	-0.3299540739	 0.9574943629	 0.109165
H	 0.2645265842	 1.0931589659	-0.0230578906	 0.082566
H	-1.3674799263	-1.4891216727	 0.117728337	 0.096642
H	-2.8840874908	-0.3944047322	 1.5862968211	 0.115129
H	-2.017348425	 1.1548330412	 1.5289024987	 0.104851
H	-4.1621854993	 0.5244043389	-0.5232704966	 0.098794
H	-2.663757864	 1.7776510479	-2.193287973	 0.124229
H	-1.4630919094	 2.0738666199	-0.8493248716	 0.115427
96.0963	182.0435	247.3135	370.3203	405.2865	420.14	540.8602	698.0555	756.047	762.9079	829.5583	907.9951	961.1688	968.5142	1024.2727	1054.5304	1064.1605	1100.4472	1105.1093	1120.476	1130.4036	1182.3481	1220.0021	1233.9256	1269.125	1296.8016	1337.6817	1365.9861	1392.7154	1436.9378	1488.1597	1500.354	1517.1704	2972.7065	3051.2821	3055.9594	3074.4851	3114.656	3121.93	3165.3092	3201.766	3789.8339
OCC1CC2CN12	OC[C@H]1C[C@H]2CN12	
InChI=1S/C5H9NO/c7-3-5-1-4-2-6(4)5/h4-5,7H,1-3H2	InChI=1S/C5H9NO/c7-3-5-1-4-2-6(4)5/h4-5,7H,1-3H2/t4-,5+,6?/m0/s1
