12
gdb 410	6.6913	3.03598	2.50133	2.375	48.35	-0.2519	-0.0315	0.2204	528.8623	0.094927	-306.364186	-306.358187	-306.357242	-306.393465	21.796	
O	-0.0389735679	 1.3832667487	-0.0120054755	-0.470804
C	-0.0312509783	-0.0015935463	-0.0071698909	 0.372656
C	-0.441850145	-0.7247625802	 1.2665683658	-0.316594
C	-1.3614770453	-0.7338684253	 0.0816783112	-0.316566
C	 1.0363333031	-0.5985962371	-0.8307178443	 0.100202
O	 1.8237061046	 0.0858789224	-1.4463182192	-0.292387
H	 0.702046235	 1.6320765813	-0.5876788122	 0.296481
H	 0.0752962439	-1.6385864495	 1.5392139314	 0.125279
H	-0.6832030758	-0.0650030385	 2.0916221314	 0.143792
H	-2.2255591792	-0.0803444792	 0.1045003177	 0.143797
H	-1.4904472128	-1.65410243	-0.4781353102	 0.125281
H	 1.0749168977	-1.7070514865	-0.8523137252	 0.088863
119.9912	268.8739	322.4969	350.5932	383.7059	496.1332	561.3275	773.2334	801.1093	847.4641	905.0306	943.8874	1011.209	1034.3191	1066.1735	1074.432	1199.0869	1220.8387	1348.4447	1387.9655	1451.8221	1452.9369	1495.9376	1790.4234	2926.2392	3136.6488	3137.6851	3225.8358	3240.1352	3694.0336
OC1(CC1)C=O	OC1(CC1)C=O	
InChI=1S/C4H6O2/c5-3-4(6)1-2-4/h3,6H,1-2H2	InChI=1S/C4H6O2/c5-3-4(6)1-2-4/h3,6H,1-2H2
