9
gdb 3814	9.74995	2.03255	1.68192	3.8693	52.49	-0.292	-0.0764	0.2156	651.5496	0.056645	-338.234966	-338.229774	-338.22883	-338.264057	18.212	
N	 0.0789415197	-1.1376088764	-0.0044143002	-0.315365
C	 0.0111219776	 0.0174543492	 0.0026440493	 0.244369
C	-0.0971282865	 1.4288168121	 0.0117764057	 0.342694
C	-1.1774142769	 2.2601077629	 0.0310515317	-0.319361
C	-0.5872687736	 3.5491009688	 0.0297779799	 0.037045
N	 0.7230833027	 3.4912172728	 0.0121700461	-0.105354
O	 1.0456799944	 2.1493733091	 0.0005217915	-0.193348
H	-2.2191243436	 1.9890935107	 0.0437053803	 0.154605
H	-1.0722599137	 4.5144501508	 0.0414618857	 0.154715
175.3699	179.672	482.0953	552.3386	578.9104	643.3334	704.2898	840.0238	924.5973	934.1244	960.2242	1011.9596	1051.827	1215.5824	1239.7774	1363.6919	1488.0189	1611.3015	2357.6485	3255.1028	3294.3736
N#CC1=CC=NO1	N#Cc1ccno1	
InChI=1S/C4H2N2O/c5-3-4-1-2-6-7-4/h1-2H	InChI=1S/C4H2N2O/c5-3-4-1-2-6-7-4/h1-2H
