12
gdb 877	7.22586	2.12285	1.65302	1.9578	51.7	-0.1914	0.055	0.2464	696.1402	0.092363	-356.72869	-356.722257	-356.721312	-356.758866	23.632	
N	 0.1341951329	 1.4132015044	 0.1781803744	-0.614433
C	-0.0080915622	 0.0193282002	 0.0314848243	 0.243928
C	-1.0568738153	-0.8503216115	-0.0596592537	-0.141354
N	-0.6094056435	-2.1652731997	-0.1229080642	-0.360574
C	 0.6900843235	-2.0702765614	-0.0782300897	 0.44303
O	 1.5762969464	-3.0821927749	-0.1244344113	-0.427675
N	 1.1299102203	-0.7912269793	 0.0168018657	-0.316346
H	 0.1688000507	 1.8976510301	-0.7143156085	 0.245071
H	-0.634710368	 1.802907624	 0.7096036002	 0.249178
H	-2.110404326	-0.6164996045	-0.0815848002	 0.097609
H	 1.0515450715	-3.8894632542	-0.1974634294	 0.311241
H	 2.0790674495	-0.4783890931	 0.1305573824	 0.270326
100.2703	210.0816	311.9592	360.1435	410.7405	471.7488	493.517	640.0704	643.3828	725.7147	748.023	800.1301	815.7188	1007.1603	1054.312	1146.2819	1181.8783	1203.9962	1258.3276	1297.9295	1393.4853	1560.0348	1608.4935	1633.8398	1661.1268	3248.1258	3490.6432	3589.618	3673.9546	3801.8512
NC1=CN=C(O)N1	Nc1cnc(O)[nH]1	
InChI=1S/C3H5N3O/c4-2-1-5-3(7)6-2/h1H,4H2,(H2,5,6,7)	InChI=1S/C3H5N3O/c4-2-1-5-3(7)6-2/h1H,4H2,(H2,5,6,7)
