13
gdb 3721	7.18421	2.00323	1.72739	1.9727	54.73	-0.2855	-0.0226	0.2629	724.09	0.1029	-340.647224	-340.640879	-340.639935	-340.678449	21.87	
C	-0.7171155029	 1.156783906	-0.1796809607	-0.38345
C	 0.5136030215	 0.2760879121	 0.0999145363	-0.294376
C	 1.0533511688	-0.3670454975	-1.131095547	 0.431752
N	 1.0826679747	-1.630672089	-1.4437764785	-0.311853
C	 1.6720373069	-1.6008445665	-2.6836534455	 0.038938
N	 1.9906718092	-0.4161423418	-3.1244807944	-0.11477
O	 1.5759521364	 0.4229261951	-2.0811257622	-0.197634
H	-0.4737673539	 1.957523676	-0.8826837378	 0.142076
H	-1.5327711985	 0.5649476239	-0.604471739	 0.135993
H	-1.0719655344	 1.610919451	 0.7491030799	 0.127016
H	 1.3055730946	 0.8824347602	 0.5539612752	 0.136553
H	 0.267719346	-0.5258055466	 0.7993534904	 0.143096
H	 1.8681123518	-2.486539563	-3.2704528369	 0.146658
33.6492	159.839	211.8928	337.6741	401.8584	651.385	663.0551	755.245	800.9842	915.8961	932.0304	970.2973	980.5223	1022.6644	1072.9361	1094.6779	1190.0213	1243.9295	1278.8864	1338.3774	1353.4376	1411.1313	1474.9201	1497.7454	1502.7082	1522.1169	1622.2712	3048.0292	3051.211	3110.4373	3124.3643	3133.6346	3259.991
CCC1=NC=NO1	CCc1ncno1	
InChI=1S/C4H6N2O/c1-2-4-5-3-6-7-4/h3H,2H2,1H3	InChI=1S/C4H6N2O/c1-2-4-5-3-6-7-4/h3H,2H2,1H3
