9
gdb 772	9.71106	3.71523	2.69493	4.3899	40.64	-0.2516	-0.0343	0.2173	441.3213	0.062933	-317.364547	-317.359794	-317.35885	-317.392436	17.141	
N	-0.0087808762	 1.3803856088	 0.1611507145	-0.584278
C	 0.0377270269	 0.0080778827	 0.03625495	 0.357554
N	-1.0293450366	-0.7511114011	 0.0001700689	-0.164962
O	-0.5537327823	-2.0459091166	-0.0393545896	-0.152526
N	 0.8042100808	-2.0763095829	-0.0425122919	-0.05279
C	 1.1920013983	-0.8344667414	 0.0065541246	-0.077859
H	 0.7281544089	 1.8758941272	-0.3185210212	 0.262529
H	-0.9201375846	 1.7721737091	-0.0324374289	 0.269659
H	 2.2387241748	-0.5729426658	 0.0227668036	 0.142673
281.6363	335.1629	387.1922	615.4978	632.7825	713.0906	738.9874	868.9783	919.2036	924.402	1029.6071	1032.118	1153.4628	1230.1032	1467.4477	1502.8189	1626.6267	1665.521	3266.2931	3566.5822	3666.8399
NC1=NON=C1	Nc1nonc1	
InChI=1S/C2H3N3O/c3-2-1-4-6-5-2/h1H,(H2,3,5)	InChI=1S/C2H3N3O/c3-2-1-4-6-5-2/h1H,(H2,3,5)
