17
gdb 3339	3.96372	3.14419	2.11482	1.3176	62.71	-0.2232	0.0826	0.3058	667.0882	0.151039	-309.705858	-309.699808	-309.698863	-309.735499	24.068	
C	-0.0276043696	 1.5344109472	-0.0252371476	-0.328924
C	 1.3053640775	 0.7954086552	-0.01093375	-0.057023
C	 2.1671312022	 0.8190576879	 1.2517897704	-0.226196
C	 1.7492637111	-0.2807171017	 2.2431508215	-0.199072
C	 0.2296915041	-0.3466220811	 2.3732014462	-0.072461
O	-0.3920562601	-0.7017975794	 1.1463394724	-0.253461
C	 0.0049330422	 0.0316141244	 0.0234774635	 0.136683
H	-0.2984970351	 2.074213851	 0.8766121016	 0.112666
H	-0.3550389962	 2.0110684445	-0.9428930438	 0.108384
H	 1.8505435476	 0.7729784733	-0.9492056886	 0.085205
H	 3.2194738905	 0.6889692323	 0.9813358055	 0.101139
H	 2.0964128743	 1.799286725	 1.7393137863	 0.100456
H	 2.1039507586	-1.2569603407	 1.8919740982	 0.10633
H	 2.1966134968	-0.1038567243	 3.2273469552	 0.0944
H	-0.0749295662	-1.1204527061	 3.0835294915	 0.107632
H	-0.1635541	 0.6140080675	 2.7460716794	 0.08742
H	-0.3003653476	-0.507039895	-0.8674861018	 0.096821
127.0295	268.9719	345.9191	396.9394	466.912	499.2353	667.1438	739.9955	788.4535	812.443	852.7495	886.4009	922.5006	971.4529	979.2152	1037.3213	1056.0824	1071.5865	1110.3762	1127.6404	1153.6142	1185.453	1222.9808	1232.1627	1267.0599	1305.4312	1352.3893	1365.7414	1383.5961	1394.8756	1427.0271	1474.3859	1481.4501	1495.4003	1512.5203	2966.6516	3025.0523	3033.6544	3071.1305	3082.4904	3084.8415	3126.7129	3148.3454	3164.5501	3212.3864
C1C2CCCOC12	C1[C@H]2CCCO[C@@H]12	
InChI=1S/C6H10O/c1-2-5-4-6(5)7-3-1/h5-6H,1-4H2	InChI=1S/C6H10O/c1-2-5-4-6(5)7-3-1/h5-6H,1-4H2/t5-,6+/m1/s1
