16
gdb 1672	4.44042	1.61962	1.51846	2.3876	57.15	-0.2424	0.0332	0.2756	864.1732	0.135126	-362.946498	-362.937565	-362.936621	-362.98071	30.391	
C	-0.0133177674	 1.6853612819	 0.2512760485	-0.387729
C	-0.0537161959	 0.16238085	 0.0380490294	-0.080049
C	 0.762082661	-0.574534607	 1.1041249994	-0.071051
O	 2.1131767956	-0.1514284634	 0.9884622984	-0.427681
C	-1.5005477466	-0.3277843572	 0.0998107472	 0.406924
N	-2.0656982756	-0.6413966628	-1.1018387213	-0.525897
O	-2.1110839693	-0.4196405055	 1.1493161796	-0.376686
H	 1.0230746205	 2.0249712466	 0.2970050795	 0.136634
H	-0.5216911826	 2.2141313298	-0.560858265	 0.10845
H	-0.5117125401	 1.9440746996	 1.1903402568	 0.134356
H	 0.3831246569	-0.0742585622	-0.9401907801	 0.073858
H	 0.3396355683	-0.3447138584	 2.0910644212	 0.113617
H	 0.67392632	-1.6616968777	 0.9513820443	 0.08843
H	 2.601984862	-0.5069785792	 1.73580363	 0.288573
H	-1.5758229856	-0.5345626144	-1.971919074	 0.258989
H	-3.0355449711	-0.9123753902	-1.1180915839	 0.259263
22.8641	112.28	141.3248	190.7257	222.7895	240.2733	252.4367	317.3031	374.3385	500.4589	590.1444	623.376	771.1307	805.0548	908.0733	933.2821	1032.1516	1067.2109	1095.006	1118.8763	1164.8659	1228.7785	1268.3468	1285.8017	1351.5044	1384.0523	1408.5814	1451.9093	1495.3454	1504.6627	1523.4253	1615.7751	1788.5033	2978.1113	3024.6149	3043.3859	3045.0659	3112.408	3138.7519	3601.8291	3741.7978	3836.8633
CC(CO)C(N)=O	C[C@@H](CO)C(=O)N	
InChI=1S/C4H9NO2/c1-3(2-6)4(5)7/h3,6H,2H2,1H3,(H2,5,7)	InChI=1S/C4H9NO2/c1-3(2-6)4(5)7/h3,6H,2H2,1H3,(H2,5,7)/t3-/m0/s1
