12
gdb 2138	3.64061	3.60402	1.96873	1.6932	50.16	-0.2743	-0.0288	0.2455	624.508	0.090797	-360.564423	-360.558401	-360.557457	-360.594365	21.509	
C	-0.0464860793	 1.5624923986	-0.0094831971	-0.387166
C	 0.0386235624	 0.0338807696	-0.0272034727	-0.116854
N	 0.8369526139	-0.4847502284	-1.1439786455	-0.247344
C	 1.7485452525	-1.1816420958	-0.6099628747	 0.120653
O	 1.7857133031	-1.2940773561	 0.7597436632	-0.203271
C	 0.7119660684	-0.5289216613	 1.2244063565	 0.42836
O	 0.4686855414	-0.4021527493	 2.3815896081	-0.312133
H	 0.9524358963	 2.0056665506	 0.0244606774	 0.134054
H	-0.5511174265	 1.9160043858	-0.9109846457	 0.140616
H	-0.6052047888	 1.8899355601	 0.870757113	 0.145405
H	-0.9744918181	-0.3829238853	-0.0899216664	 0.138962
H	 2.5332398347	-1.7225025286	-1.1248920761	 0.158718
123.9683	217.5644	232.6196	321.0635	496.1191	575.917	658.6417	720.8061	803.4127	850.7484	890.8778	950.2652	1002.9729	1078.5944	1115.7915	1123.0093	1160.3739	1284.5623	1308.3543	1341.4551	1403.8863	1487.7198	1496.9908	1696.2196	1920.2883	3039.2745	3053.2675	3130.9654	3141.4336	3228.1685
CC1N=COC1=O	C[C@H]1N=COC1=O	
InChI=1S/C4H5NO2/c1-3-4(6)7-2-5-3/h2-3H,1H3	InChI=1S/C4H5NO2/c1-3-4(6)7-2-5-3/h2-3H,1H3/t3-/m1/s1
