11
gdb 130	18.87188	2.54729	2.47133	4.0425	40.48	-0.2778	0.0091	0.2868	510.9124	0.089832	-268.307873	-268.301991	-268.301047	-268.337439	18.727	
C	-0.0469724154	 1.3569381897	 0.1562267469	-0.373771
C	 0.2537227363	-0.0662765919	-0.2865594585	-0.066086
O	 1.1659800972	-0.6949762906	 0.6260049007	-0.172558
C	 0.6882427822	-1.6480411651	 1.445152976	 0.175179
O	 1.3621734649	-2.2008201224	 2.2611571943	-0.274693
H	 0.8778385597	 1.9314562172	 0.2543396272	 0.14209
H	-0.6867903133	 1.8522052553	-0.5808573058	 0.125239
H	-0.5617005112	 1.3664722408	 1.1215970082	 0.130476
H	-0.6655701378	-0.6616744352	-0.3598997101	 0.111979
H	 0.7422104363	-0.0821347556	-1.2650279728	 0.128419
H	-0.3857977189	-1.8626391723	 1.2722333238	 0.073726
50.209	164.1211	225.31	376.4733	407.7902	629.3155	803.2651	922.7225	1044.2295	1052.83	1118.9345	1132.6901	1230.6865	1330.8624	1397.57	1413.9558	1434.0763	1485.5628	1493.7075	1513.762	1867.4022	2933.0587	3025.539	3043.9828	3086.8471	3118.1924	3128.6067
CCOC=O	CCOC=O	
InChI=1S/C3H6O2/c1-2-5-3-4/h3H,2H2,1H3	InChI=1S/C3H6O2/c1-2-5-3-4/h3H,2H2,1H3
