18
gdb 1540	5.13399	1.28518	1.08638	4.1508	68.55	-0.3125	0.0391	0.3516	1097.6249	0.159202	-289.871661	-289.863021	-289.862077	-289.904897	30.226	
C	 0.0473002925	 1.5998024269	 0.0434427943	-0.38363
C	-0.0133482884	 0.0700879338	-0.0049180139	-0.182242
C	 0.6462668466	-0.4974325597	-1.2666641556	-0.161515
C	 0.6871146445	-2.0446022254	-1.3121344876	-0.141538
C	-0.7054060018	-2.7004852749	-1.3991985081	-0.389759
C	 1.5184035838	-2.4849580099	-2.4385840421	 0.263465
N	 2.1670391229	-2.8229287457	-3.3337723231	-0.324883
H	 1.0830627334	 1.9558248125	 0.0292455983	 0.120207
H	-0.4664879531	 2.0431434058	-0.8164375413	 0.119881
H	-0.4268006629	 1.9863963763	 0.9504566294	 0.117242
H	 0.4838477102	-0.3455754166	 0.8817396149	 0.099724
H	-1.059802706	-0.2510326598	 0.0509939106	 0.105028
H	 0.1247806179	-0.1320172877	-2.1601799353	 0.113278
H	 1.6736644704	-0.1218473393	-1.3354253075	 0.116967
H	 1.182764748	-2.4004001868	-0.3987358573	 0.124853
H	-0.6198793097	-3.7879911889	-1.4621986801	 0.13812
H	-1.2979442676	-2.4559279224	-0.5148012832	 0.128868
H	-1.2423793107	-2.3491078381	-2.2851642725	 0.135934
72.3916	98.5387	130.18	204.8529	241.1824	250.0343	304.6966	324.1064	407.9072	551.7727	576.342	745.5936	816.2291	870.8848	891.1417	943.7618	1005.7536	1032.689	1067.3963	1123.993	1131.5996	1190.3048	1260.4154	1294.3269	1325.4513	1343.9933	1352.3867	1395.6477	1412.4417	1416.8818	1481.4334	1493.3319	1497.7483	1500.2716	1502.0112	1511.0103	2355.1399	3018.5206	3020.2182	3031.881	3035.742	3050.2312	3054.2	3077.89	3102.3672	3107.9004	3125.2401	3133.4518
CCCC(C)C#N	CCC[C@@H](C)C#N	
InChI=1S/C6H11N/c1-3-4-6(2)5-7/h6H,3-4H2,1-2H3	InChI=1S/C6H11N/c1-3-4-6(2)5-7/h6H,3-4H2,1-2H3/t6-/m1/s1
