14
gdb 4389	3.66874	2.05727	1.32898	1.9357	70.6	-0.2258	-0.0669	0.1589	879.3165	0.108043	-378.74764	-378.740728	-378.739783	-378.778839	25.633	
C	 0.0442106753	 1.5044124213	-0.0296657092	-0.472116
C	-0.0652569909	 0.0211468482	 0.063668746	 0.380214
C	-1.125674389	-0.7320535941	-0.2924543753	-0.151592
N	-1.1239679836	-2.1116265103	-0.164117981	-0.216233
C	-0.0610567113	-2.6559428507	 0.3129823758	-0.067679
C	 1.1388259055	-1.9216312276	 0.7267440366	 0.348363
N	 2.2257082237	-2.3695550553	 1.2044358352	-0.504629
O	 1.0568580262	-0.5508580019	 0.5671638241	-0.232841
H	 0.8859427569	 1.7862620576	-0.6713186095	 0.153325
H	-0.8729744353	 1.9320227577	-0.4376844849	 0.14135
H	 0.2312081528	 1.9378731707	 0.958720287	 0.153318
H	-2.0213649772	-0.2772553239	-0.6942288564	 0.117459
H	-0.0309837291	-3.7389788415	 0.4252444911	 0.122688
H	 2.1786698059	-3.3846371801	 1.2793746004	 0.228374
110.4159	161.3553	195.1323	294.0796	422.485	460.308	531.9381	573.5529	585.9341	714.7428	740.6382	815.3154	850.1416	895.342	932.0678	1015.5815	1027.4017	1063.2377	1082.2313	1133.7183	1238.8878	1316.8534	1374.1563	1401.0393	1417.0091	1467.0686	1481.3257	1594.2649	1673.1883	1715.3755	3040.0193	3096.1572	3137.7826	3143.8165	3216.9796	3505.6597
CC1=CN=CC(=N)O1	CC1=C[N]C=C([NH])O1	
InChI=1S/C5H6N2O/c1-4-2-7-3-5(6)8-4/h2-3,6H,1H3	InChI=1S/C5H6N2O/c1-4-2-7-3-5(6)8-4/h2-3,6H,1H3
