14
gdb 2927	6.64211	1.94819	1.55007	3.1656	54.45	-0.2556	0.0202	0.2758	765.9013	0.114461	-361.725962	-361.719085	-361.718141	-361.75736	23.601	
O	 0.1447974484	 1.344882706	 0.2608273932	-0.421427
C	 0.0436482766	-0.0414433301	 0.0738751679	-0.123765
C	-1.3867508561	-0.4791956752	-0.0197989216	 0.392056
N	-2.3715316675	 0.3178256773	 0.06200395	-0.334161
C	-3.5856399246	-0.5000740286	-0.0771299277	-0.185479
C	-3.0547107277	-1.9482248092	-0.2567527826	-0.111823
O	-1.6129735225	-1.799992593	-0.2013948824	-0.251348
H	-0.7640773709	 1.6783105318	 0.2825935077	 0.2976
H	 0.5635068294	-0.3556371629	-0.8445716169	 0.120949
H	 0.5202860952	-0.5879866982	 0.9024869559	 0.120957
H	-4.2155154211	-0.3920370695	 0.8116907354	 0.122647
H	-4.1719982482	-0.1592426046	-0.9364569974	 0.122646
H	-3.3566188755	-2.6292962997	 0.5430830983	 0.125572
H	-3.3130250058	-2.394585334	-1.2204816498	 0.125575
81.1414	97.9705	206.0726	218.9069	306.2409	453.6499	589.3412	705.7967	760.1493	827.7671	925.4385	984.3145	994.7182	1040.8687	1044.2285	1115.0856	1122.8875	1214.1376	1238.6854	1244.3756	1247.3654	1317.9647	1351.4401	1384.1703	1483.4355	1503.791	1506.8184	1526.6545	1741.2306	2988.2714	3004.8148	3045.6805	3062.1809	3075.1609	3111.5505	3720.4818
OCC1=NCCO1	OCC1=NCCO1	
InChI=1S/C4H7NO2/c6-3-4-5-1-2-7-4/h6H,1-3H2	InChI=1S/C4H7NO2/c6-3-4-5-1-2-7-4/h6H,1-3H2
