15
gdb 1274	5.88314	1.40183	1.20609	1.8227	54.39	-0.273	0.0099	0.2829	969.3956	0.123101	-382.824468	-382.816163	-382.815219	-382.858285	27.705	
C	-0.2193341055	 1.4238190061	-0.0231720619	-0.479731
C	 0.0259120033	-0.0637516227	 0.0507230773	 0.433492
O	 1.0993418147	-0.5983238496	 0.150179038	-0.342102
O	-1.1422044166	-0.7454091696	-0.0094701636	-0.256509
C	-1.0390607631	-2.1837709607	 0.026856468	-0.072527
C	-2.4607631879	-2.712448599	-0.0239848011	-0.069252
O	-3.1276761937	-2.3378581739	-1.2129813664	-0.418139
H	 0.7276793922	 1.9520046429	 0.0789374643	 0.151985
H	-0.6834209393	 1.6789899739	-0.9804669814	 0.149751
H	-0.9095288003	 1.7333723899	 0.7663939791	 0.150112
H	-0.4584429023	-2.5225153518	-0.836333572	 0.12882
H	-0.5198208149	-2.493513858	 0.9392597025	 0.121436
H	-2.4349477109	-3.8068349804	-0.0045927416	 0.117281
H	-3.0069512539	-2.3744796338	 0.8709038764	 0.096041
H	-3.0758234617	-1.3771529831	-1.2643904575	 0.28934
43.9273	68.8365	101.1693	166.9386	218.3092	302.4625	387.0923	418.8526	505.4344	605.4614	638.6454	831.4427	896.4548	964.4364	997.1031	1061.8044	1064.4128	1098.9669	1127.2442	1233.9967	1260.6038	1263.9729	1382.8065	1391.5793	1404.5219	1435.0234	1469.7279	1476.8915	1496.2117	1499.5717	1831.9214	2985.1026	3053.5011	3057.0007	3082.9697	3107.5051	3121.6752	3170.4159	3811.0245
CC(=O)OCCO	CC(=O)OCCO	
InChI=1S/C4H8O3/c1-4(6)7-3-2-5/h5H,2-3H2,1H3	InChI=1S/C4H8O3/c1-4(6)7-3-2-5/h5H,2-3H2,1H3
