13
gdb 1059	7.36199	2.06799	1.64156	3.2061	55.38	-0.2134	0.0357	0.2491	715.2911	0.103891	-340.667317	-340.660909	-340.659965	-340.697997	22.855	
O	-0.1107915153	 1.4004207787	 0.2685684961	-0.430767
C	-0.0083754635	 0.0079954794	-0.0103969512	-0.187557
C	-1.3898182342	-0.563287328	 0.0369372627	 0.357208
N	-1.7117104899	-1.8337167697	 0.1363549452	-0.317459
C	-3.0882411899	-1.8610049267	 0.0979406758	-0.090463
C	-3.594555295	-0.5937029443	-0.0204560352	-0.113935
N	-2.4909893771	 0.2291941304	-0.0656682427	-0.253045
H	 0.7353519294	 1.8105085421	 0.0707500636	 0.296834
H	 0.4340560754	-0.1622902114	-1.0045833586	 0.114314
H	 0.6209459405	-0.5175753984	 0.7209618007	 0.12499
H	-3.633265496	-2.7904316924	 0.1625993016	 0.103497
H	-4.5987171216	-0.2071002069	-0.0669377762	 0.12346
H	-2.4625394728	 1.2341521173	-0.1087157518	 0.272924
59.4032	204.6422	225.1119	269.1767	471.8367	582.1639	657.1208	684.4727	715.6696	729.8413	854.5841	931.9974	990.2424	1035.3588	1068.6781	1100.0416	1134.8069	1177.7685	1214.5181	1227.7464	1287.7713	1385.8744	1445.1823	1478.4813	1511.0344	1517.4071	1594.725	2976.7495	3023.6211	3247.8403	3281.3724	3672.0864	3845.7491
OCC1=NC=CN1	OCc1ncc[nH]1	
InChI=1S/C4H6N2O/c7-3-4-5-1-2-6-4/h1-2,7H,3H2,(H,5,6)	InChI=1S/C4H6N2O/c7-3-4-5-1-2-6-4/h1-2,7H,3H2,(H,5,6)
