14
gdb 932	5.72119	2.5835	1.79964	2.344	65.6	-0.248	-0.0209	0.2272	688.9823	0.115957	-287.506415	-287.500353	-287.499409	-287.536739	22.184	
C	-0.0120246201	 1.5221082274	 0.0075424271	-0.497922
C	-0.0005709362	 0.0153218107	 0.0138985095	 0.272295
C	-0.0926816001	-0.7178452842	-1.1719273045	-0.056413
N	-0.089255661	-2.0509490473	-1.2449476125	-0.260935
C	 0.0097000188	-2.7251330751	-0.0979990643	 0.000111
C	 0.1074597215	-2.1055585234	 1.1457755625	-0.109956
C	 0.1019229354	-0.7178126805	 1.1982479193	-0.149448
H	 0.9049915869	 1.9308586442	 0.4463570058	 0.134535
H	-0.0980719955	 1.9120791819	-1.0101281439	 0.129307
H	-0.8514583613	 1.9180400231	 0.5899344032	 0.134548
H	-0.1743850033	-0.189832529	-2.1209791477	 0.099634
H	 0.0110658604	-3.8099182927	-0.1753229288	 0.106077
H	 0.1859490664	-2.7001388753	 2.0495058276	 0.099457
H	 0.1766158279	-0.2029549197	 2.1521814168	 0.098708
51.0964	213.7125	332.1221	412.5851	471.7395	541.0142	639.5428	739.607	812.3014	815.375	954.4508	967.4183	1000.2616	1001.4331	1044.2232	1066.955	1068.7028	1143.9821	1223.0137	1250.6394	1294.2458	1365.927	1413.9995	1449.3584	1484.4577	1495.2814	1514.7095	1613.6542	1635.1483	3031.9341	3086.0566	3114.7466	3136.1985	3153.4274	3165.6271	3194.3779
CC1=CN=CC=C1	Cc1cnccc1	
InChI=1S/C6H7N/c1-6-3-2-4-7-5-6/h2-5H,1H3	InChI=1S/C6H7N/c1-6-3-2-4-7-5-6/h2-5H,1H3
