11
gdb 215	6.06065	5.83683	2.97332	2.1103	53.03	-0.2518	-0.0225	0.2293	432.2254	0.088683	-248.211932	-248.207665	-248.206721	-248.239325	16.093	
C	-0.0294202895	 1.3896640834	 0.0104285645	-0.077649
C	 1.1839009072	 2.0699904425	 0.0022445846	-0.112292
C	 2.3604497801	 1.3256760543	-0.0136579488	 0.013418
N	 2.393610287	-0.0099666862	-0.0215520597	-0.251932
C	 1.2200579139	-0.648568116	-0.0135259495	 0.013418
C	-0.0125339478	-0.0012748579	 0.0023764114	-0.112291
H	-0.9689982083	 1.9323926418	 0.022833352	 0.107632
H	 1.2218066594	 3.1536779075	 0.0080144952	 0.101543
H	 3.3259353677	 1.8261124856	-0.0203835107	 0.108305
H	 1.2689447457	-1.734942747	-0.0201755077	 0.108305
H	-0.9323305154	-0.575546468	 0.0082555288	 0.101543
385.8701	421.2306	611.3913	666.2081	725.8852	774.3058	905.6194	966.5264	1002.6723	1009.463	1016.4433	1049.3231	1079.3939	1095.4226	1172.5345	1246.0132	1295.4301	1383.6185	1473.1283	1514.8886	1620.6653	1625.9862	3152.9452	3155.3397	3178.556	3194.9806	3203.3848
C1=CC=NC=C1	c1ccncc1	
InChI=1S/C5H5N/c1-2-4-6-5-3-1/h1-5H	InChI=1S/C5H5N/c1-2-4-6-5-3-1/h1-5H
