14
gdb 821	6.64696	1.61865	1.43804	1.5017	57.93	-0.2458	-0.0027	0.2432	829.7464	0.111634	-361.650084	-361.642701	-361.641757	-361.681597	26.237	
C	-0.896265933	 0.8311216199	 0.0294881366	-0.497262
C	 0.126530999	-0.2460433434	 0.2485662213	 0.369071
N	 0.8729005994	-0.3627397377	 1.2823761433	-0.179389
O	 0.5972049978	 0.6184201666	 2.2398512384	-0.392539
C	 0.3501008955	-1.2916378326	-0.7843267831	 0.019494
C	-0.7401432913	-1.8170493885	-1.6254090665	-0.186559
O	 0.2068681832	-0.8943708329	-2.155427915	-0.229915
H	-0.5199285868	 1.7844758815	 0.4061402679	 0.152773
H	-1.1254929136	 0.9224313536	-1.0335016975	 0.144199
H	-1.8192311501	 0.6117607033	 0.5784751509	 0.141323
H	 1.2521653637	 0.4286977356	 2.9201496262	 0.30909
H	 1.1995812141	-1.9391955514	-0.5780008772	 0.107755
H	-0.6709842914	-2.8353179752	-2.0052602455	 0.124061
H	-1.7516427764	-1.4327312788	-1.5040202197	 0.117898
87.3389	129.3694	217.3616	224.3484	310.5121	385.428	433.1879	462.1325	571.2143	623.2094	786.0219	844.2273	906.4067	959.4798	1004.89	1052.4341	1061.2257	1101.6147	1155.0156	1172.6446	1263.9399	1296.7865	1370.2797	1399.3339	1435.0738	1483.7853	1490.1512	1525.6566	1721.4965	3043.8652	3086.6629	3112.1198	3141.7977	3149.5837	3175.1784	3817.8344
CC(=NO)C1CO1	CC(=NO)[C@H]1CO1	
InChI=1S/C4H7NO2/c1-3(5-6)4-2-7-4/h4,6H,2H2,1H3	InChI=1S/C4H7NO2/c1-3(5-6)4-2-7-4/h4,6H,2H2,1H3/t4-/m1/s1
