11
gdb 1386	7.48524	1.24204	1.07239	5.6058	59.26	-0.2562	-0.1058	0.1504	1019.8921	0.074732	-343.239068	-343.231079	-343.230135	-343.274271	24.832	
C	 0.0446856551	 1.4486999846	 0.0082015625	-0.502936
C	 0.0030371107	-0.001676855	-0.0093008126	 0.080128
C	-0.0542986004	-1.2086633484	-0.02312984	 0.032597
C	-0.0750080797	-2.6490265375	-0.0383038068	 0.158842
O	-1.0756889614	-3.3259467165	-0.0766139691	-0.250834
C	 1.3304276804	-3.3024574053	-0.0006427201	 0.079326
O	 1.480017461	-4.4906586109	-0.0081181287	-0.202054
H	 1.0690752113	 1.8223396932	-0.0855943859	 0.164771
H	-0.5498249321	 1.8621628245	-0.813450495	 0.17181
H	-0.3740665496	 1.8317152671	 0.9452794655	 0.17218
H	 2.1784616148	-2.5839948557	 0.0335382902	 0.09617
7.6178	70.1011	84.8503	154.0434	264.4541	322.3805	387.4057	468.5706	563.3892	584.1165	841.9497	944.2357	1003.6834	1041.0416	1052.9368	1196.4028	1396.0315	1408.2596	1466.404	1470.0372	1766.4231	1842.876	2330.1321	2897.9625	3034.255	3098.6268	3105.3567
CC#CC(=O)C=O	CC#CC(=O)C=O	
InChI=1S/C5H4O2/c1-2-3-5(7)4-6/h4H,1H3	InChI=1S/C5H4O2/c1-2-3-5(7)4-6/h4H,1H3
