12
gdb 3499	7.42468	2.04823	1.93847	2.2163	54.54	-0.2667	0.0094	0.2761	649.7046	0.090789	-323.312767	-323.307253	-323.306309	-323.34206	20.65	
N	-0.0905833685	-1.223057044	-0.1076247376	-0.326747
C	-0.0571528786	-0.0684211761	-0.0556274823	 0.260062
C	-0.0132019296	 1.3808997241	 0.0115457352	-0.134504
C	 0.1224125608	 2.113592463	 1.3868890558	 0.05547
C	 1.5773985013	 1.6105249636	 1.5247022957	-0.239848
C	 1.3543075454	 2.1364200434	 0.08848519	 0.05547
O	 0.6228984814	 3.2897398346	 0.6486112828	-0.301144
H	-0.7307666599	 1.8512177894	-0.6609935374	 0.135652
H	-0.6495437224	 2.2694848302	 2.1396861363	 0.118215
H	 2.2171721665	 2.2393029356	 2.1427613447	 0.124116
H	 1.748009324	 0.5421950342	 1.6677918461	 0.135045
H	 2.0625303696	 2.3197263221	-0.7188195493	 0.118215
169.7836	177.716	436.8646	526.2415	538.001	580.2287	727.1683	819.7706	882.4861	895.3515	906.8602	930.8911	1006.7432	1032.7245	1061.5706	1085.413	1148.6717	1172.0636	1188.9586	1208.805	1258.2171	1269.0314	1343.299	1487.8335	2353.4692	3084.3366	3122.8476	3131.0758	3137.0395	3168.1062
N#CC1C2CC1O2	N#C[C@H]1[C@H]2C[C@@H]1O2	
InChI=1S/C5H5NO/c6-2-3-4-1-5(3)7-4/h3-5H,1H2	InChI=1S/C5H5NO/c6-2-3-4-1-5(3)7-4/h3-5H,1H2/t3-,4+,5-
