12
gdb 1053	7.9364	2.20291	1.74328	0.2234	51.5	-0.2226	0.0234	0.246	681.0569	0.091378	-360.53692	-360.530866	-360.529922	-360.566989	21.224	
C	-0.0261193157	 1.3647384418	 0.0313964598	-0.235823
O	 0.0279477543	-0.0647507512	-0.0425309197	-0.246396
C	 0.6399655184	-0.5387369714	-1.1149342137	 0.507788
N	 1.192199208	 0.0978858034	-2.0986633966	-0.384992
C	 1.6644867144	-0.9321868158	-2.9157474069	-0.110265
C	 1.3609571769	-2.1244615023	-2.3644272009	-0.045195
O	 0.6887210707	-1.8808007477	-1.1812922529	-0.187095
H	 0.9828302009	 1.7855819141	 0.0516910242	 0.146089
H	-0.5633433143	 1.7726948644	-0.8290696545	 0.14621
H	-0.5551401215	 1.5904038858	 0.9569713135	 0.13969
H	 2.1854196545	-0.7262896016	-3.8371170868	 0.1245
H	 1.5146074034	-3.1571999194	-2.6210200456	 0.145489
114.7633	152.3955	244.2422	323.0818	513.0377	619.9118	708.3233	715.7267	762.3529	858.9568	927.0667	970.9854	1069.2961	1095.0669	1139.8923	1178.0319	1184.1507	1227.1772	1286.1575	1421.9968	1474.3531	1479.6926	1500.9947	1583.4342	1651.5265	3048.1379	3122.3475	3162.0321	3264.8641	3310.4343
COC1=NC=CO1	COc1ncco1	
InChI=1S/C4H5NO2/c1-6-4-5-2-3-7-4/h2-3H,1H3	InChI=1S/C4H5NO2/c1-6-4-5-2-3-7-4/h2-3H,1H3
