13
gdb 1397	6.67352	1.45114	1.24798	0.6891	58.34	-0.3343	0.0003	0.3346	888.8668	0.101478	-303.533559	-303.526088	-303.525144	-303.565337	25.55	
C	 0.027106615	 1.5770384062	 0.0058989881	-0.398424
C	 0.0048905911	 0.0380845784	-0.0246635846	-0.143477
C	-1.4379810945	-0.5411267399	 0.0253235722	-0.336183
C	-2.127807189	-0.1701004119	 1.2579712576	 0.264975
N	-2.6553819581	 0.1325605573	 2.2402084124	-0.297566
C	 0.6793844933	-0.4755783101	-1.2207672565	 0.268505
N	 1.1991844917	-0.8780844119	-2.1709098453	-0.307214
H	 1.054925582	 1.945608855	-0.0073068042	 0.148612
H	-0.4966934085	 1.9903809115	-0.860563716	 0.14288
H	-0.4617643593	 1.9348852959	 0.9151938228	 0.157135
H	 0.5503887121	-0.3431680656	 0.846428847	 0.152536
H	-2.0132139139	-0.1754560679	-0.8319559744	 0.172568
H	-1.407129452	-1.6324693971	-0.0499710491	 0.175651
77.9693	131.1956	189.5247	224.0601	276.2905	340.4044	395.307	515.8878	548.4205	564.2947	821.8376	892.9161	911.0226	969.0299	1065.0702	1098.6523	1135.9155	1244.5978	1297.0915	1334.6186	1367.402	1417.9694	1466.2229	1495.3333	1499.5	2361.4841	2365.8634	3048.1477	3054.097	3060.0866	3101.618	3131.6423	3140.4036
CC(CC#N)C#N	C[C@@H](CC#N)C#N	
InChI=1S/C5H6N2/c1-5(4-7)2-3-6/h5H,2H2,1H3	InChI=1S/C5H6N2/c1-5(4-7)2-3-6/h5H,2H2,1H3/t5-/m0/s1
