11
gdb 336	6.06166	2.54178	1.91991	2.7273	47.71	-0.2801	-0.0545	0.2256	611.9888	0.083083	-285.313284	-285.306637	-285.305693	-285.344071	21.73	
C	 0.0397991316	 1.4980844497	 0.0091282267	-0.400741
C	-0.0400527639	-0.0485713664	-0.0149355282	-0.206394
C	 0.714205947	-0.60164151	 1.2048563756	 0.17009
O	 1.8532480217	-0.9709744421	 1.1506760731	-0.227007
C	-1.4268343516	-0.5116520602	-0.0060761965	 0.255781
N	-2.5207680901	-0.8824597432	 0.031925327	-0.305052
H	 1.0865159297	 1.8065761164	-0.0393184644	 0.149714
H	-0.4957618891	 1.9171231634	-0.8452010174	 0.153464
H	-0.406336896	 1.8983029787	 0.9236630144	 0.14693
H	 0.4650521426	-0.4300067841	-0.9077006473	 0.152894
H	 0.1348190482	-0.589769882	 2.1525056571	 0.110322
56.9871	175.1415	213.2701	227.6844	303.8833	464.8643	536.082	558.8312	855.609	906.7866	947.9076	1073.1469	1093.7767	1141.2969	1262.0035	1318.334	1402.1518	1418.9763	1493.3077	1497.3004	1845.3456	2358.5881	2912.2765	3053.5661	3076.1868	3133.3439	3142.7329
CC(C=O)C#N	C[C@@H](C=O)C#N	
InChI=1S/C4H5NO/c1-4(2-5)3-6/h3-4H,1H3	InChI=1S/C4H5NO/c1-4(2-5)3-6/h3-4H,1H3/t4-/m1/s1
