14
gdb 2754	3.92793	2.52096	1.76659	4.2655	57.2	-0.2788	-0.0005	0.2783	716.767	0.113423	-324.568212	-324.561222	-324.560278	-324.599669	24.349	
C	-0.304340272	 1.5246499365	-0.0445367336	-0.417907
C	 0.0049127334	 0.0378517441	-0.0512796062	-0.039307
C	 1.3166028977	-0.4412204896	-0.7129199899	-0.078076
O	 1.72205655	-1.1423398397	 0.4884651923	-0.271443
C	 0.6011299771	-0.6321834611	 1.2285983393	-0.015384
C	 1.0053444566	 0.2748029722	 2.3099682893	 0.284195
N	 1.3090562333	 0.9980745186	 3.1588258457	-0.324144
H	 0.5440478064	 2.1081707569	 0.3246124776	 0.14403
H	-0.5385095241	 1.8659436016	-1.0581238802	 0.125214
H	-1.1668773022	 1.7481941728	 0.5908726879	 0.134109
H	-0.8593269203	-0.532925287	-0.3986560238	 0.10038
H	 1.2219870831	-1.1221752521	-1.5645832025	 0.115887
H	 2.0191451245	 0.362703147	-0.9656340525	 0.11552
H	-0.0005647435	-1.4395078404	 1.6620286468	 0.126925
56.1364	144.3942	213.1604	234.9047	320.5551	391.6098	532.997	582.6524	727.2686	822.3434	894.3631	928.1554	952.9004	999.9147	1033.4682	1095.4155	1136.0265	1155.1343	1181.9192	1243.574	1277.4555	1343.1261	1354.9634	1382.9916	1419.6357	1494.0123	1494.4515	1524.8515	2352.6297	3024.3181	3039.4666	3041.7501	3073.6785	3088.9862	3107.8302	3119.7049
CC1COC1C#N	C[C@H]1CO[C@H]1C#N	
InChI=1S/C5H7NO/c1-4-3-7-5(4)2-6/h4-5H,3H2,1H3	InChI=1S/C5H7NO/c1-4-3-7-5(4)2-6/h4-5H,3H2,1H3/t4-,5-/m0/s1
