12
gdb 950	6.01624	2.63801	1.83388	2.6912	58.03	-0.251	-0.0094	0.2417	636.9469	0.093196	-323.437779	-323.432484	-323.43154	-323.466639	20.501	
O	 0.10379921	 1.3630809217	 0.1322110934	-0.430065
C	 0.0696462868	 0.0122075571	 0.0405320187	 0.413594
C	 0.075778491	-0.6749494288	-1.1737838806	-0.266147
C	 0.0381595996	-2.0651003237	-1.145221942	 0.026314
N	-0.003771746	-2.794338199	-0.0280479157	-0.278827
C	-0.008847195	-2.1139732115	 1.1244197798	 0.019627
C	 0.026101257	-0.729725622	 1.2212737973	-0.202661
H	 0.1317584667	 1.7423661326	-0.7532205775	 0.301689
H	 0.1090165085	-0.1423982284	-2.1199864475	 0.088795
H	 0.0422292604	-2.6192750094	-2.0812618078	 0.109037
H	-0.0430681517	-2.7130330478	 2.0315145645	 0.11023
H	 0.0202261926	-0.2258694608	 2.1802878273	 0.108415
230.14	396.3728	407.9344	422.6456	526.8493	548.3891	678.4409	758.5978	834.519	849.9242	864.7788	976.1749	999.6991	1006.8918	1076.4635	1102.6732	1194.1061	1243.2672	1320.385	1327.2781	1382.8892	1459.1442	1533.6058	1626.6127	1643.0386	3149.5437	3155.1912	3172.0729	3208.7295	3812.082
OC1=CC=NC=C1	Oc1ccncc1	
InChI=1S/C5H5NO/c7-5-1-3-6-4-2-5/h1-4H,(H,6,7)	InChI=1S/C5H5NO/c7-5-1-3-6-4-2-5/h1-4H,(H,6,7)
