14
gdb 418	5.94194	2.85945	2.4711	2.0651	49.73	-0.2421	0.0639	0.306	568.4896	0.1187	-307.544316	-307.537691	-307.536747	-307.574152	24.458	
O	-0.0851518408	 1.372494419	-0.2878856016	-0.432958
C	-0.0013523581	 0.000457308	 0.1001316557	-0.14733
C	-1.4030598556	-0.5479413466	 0.0437675111	 0.458299
O	-2.2906017205	 0.1553181676	 0.8664474331	-0.47474
C	-1.934615737	-1.1262701296	-1.2464097029	-0.313081
C	-1.6391737982	-2.0192599235	-0.05456033	-0.316654
H	 0.697998638	 1.8281009306	 0.0324210835	 0.292132
H	 0.6619681246	-0.5658090755	-0.5701250932	 0.087558
H	 0.3837815258	-0.0900255514	 1.1262469692	 0.096406
H	-2.1597757466	 1.0859919153	 0.6435230754	 0.285961
H	-2.976597017	-0.9294864664	-1.4696777509	 0.117955
H	-1.2798741088	-1.1775289799	-2.1097527403	 0.110682
H	-0.7841567544	-2.6857614565	-0.0995173491	 0.109982
H	-2.4854907813	-2.403698431	 0.5029425799	 0.125786
119.5974	225.8398	248.7422	336.6464	344.1748	413.3833	464.2925	537.6227	735.2924	773.2146	888.9563	916.9715	937.7776	987.3144	1040.8457	1052.8566	1057.5918	1078.841	1187.3761	1211.4423	1243.8088	1286.6071	1327.6065	1408.1122	1451.7728	1459.1264	1506.1677	1513.1315	2984.8344	3024.7215	3133.4108	3137.1606	3219.0005	3233.2256	3774.3495	3841.4426
OCC1(O)CC1	OCC1(O)CC1	
InChI=1S/C4H8O2/c5-3-4(6)1-2-4/h5-6H,1-3H2	InChI=1S/C4H8O2/c5-3-4(6)1-2-4/h5-6H,1-3H2
