14
gdb 4665	7.09407	1.23147	1.05333	5.1464	68.35	-0.2053	-0.0259	0.1795	1044.0199	0.108761	-378.768449	-378.761063	-378.760119	-378.800129	26.96	
N	 0.106596659	 1.4064880035	 0.1344999469	-0.607969
C	-0.0275043654	 0.0080993389	 0.0437281143	 0.314178
C	-1.1047839554	-0.8413599778	 0.0171147806	-0.335932
C	-0.5937629813	-2.181366163	-0.0061726715	 0.195425
C	-1.3606516571	-3.4184587662	-0.0414567548	 0.069187
O	-0.8869588118	-4.5356048772	-0.0879535183	-0.294027
C	 0.7881186843	-2.0928291773	-0.0015105368	-0.147065
N	 1.1143888304	-0.7720530717	 0.0373512842	-0.263576
H	 0.3383144154	 1.8349217666	-0.7573586581	 0.248081
H	-0.7520683011	 1.8285054751	 0.4654704044	 0.252063
H	-2.1443271311	-0.5500273234	-0.0009924833	 0.097911
H	-2.4650857448	-3.2708300307	-0.0216064048	 0.054522
H	 1.531836081	-2.8716889702	-0.0210647274	 0.149945
H	 2.0437520379	-0.3939219266	 0.1191281046	 0.267258
116.3824	136.1895	177.3218	241.7447	314.8041	376.3194	478.0855	551.1085	651.0698	654.0277	704.0989	759.5432	778.9601	799.1978	825.1164	985.6934	1009.4014	1041.3588	1127.2896	1143.5983	1186.6518	1273.3922	1345.0963	1411.1244	1440.8545	1459.7792	1544.9238	1624.6709	1658.178	1779.8716	2862.2846	3243.9132	3281.427	3493.3577	3599.9008	3663.6854
NC1=CC(C=O)=CN1	Nc1cc(C=O)c[nH]1	
InChI=1S/C5H6N2O/c6-5-1-4(3-8)2-7-5/h1-3,7H,6H2	InChI=1S/C5H6N2O/c6-5-1-4(3-8)2-7-5/h1-3,7H,6H2
