15
gdb 3176	5.64441	2.38734	2.03728	1.3114	56.71	-0.2477	0.0883	0.336	667.7131	0.125896	-345.632155	-345.625882	-345.624937	-345.662711	23.157	
C	 0.1003158161	 1.5413890611	 0.023758253	-0.341297
C	 1.252053576	 0.5551881534	-0.1174113019	-0.327022
C	-0.1640487137	 0.0792402704	 0.0647179105	 0.413448
C	-0.6373208434	-0.7132629839	 1.2830743038	-0.150455
O	-1.2421351162	-1.8772033944	 0.7218351987	-0.254178
C	-0.9635469223	-1.8547852535	-0.6625921785	 0.015844
O	-0.83618563	-0.5022026896	-1.0279199742	-0.264185
H	 0.0088651928	 2.1072544663	 0.9451092905	 0.119194
H	-0.2158147868	 2.0716671252	-0.8675218645	 0.131445
H	 1.6884612202	 0.4419136545	-1.1033511464	 0.125018
H	 1.946824494	 0.450255121	 0.7099206095	 0.114135
H	 0.1944749835	-0.984869847	 1.9455846527	 0.104552
H	-1.3945874679	-0.1769998839	 1.8667789217	 0.112065
H	-0.0296501289	-2.4053818438	-0.8777210466	 0.08292
H	-1.8008310435	-2.2964514858	-1.2098590883	 0.118514
53.6012	204.2321	280.0145	320.8084	469.1555	527.8369	743.3802	765.6418	800.8099	865.892	905.5913	936.8331	958.5183	989.0868	1037.3717	1052.724	1078.5233	1105.5107	1113.206	1179.3407	1189.3196	1207.9205	1228.6935	1265.405	1337.3029	1385.1403	1434.5433	1452.0134	1499.5625	1525.733	1541.9722	2936.6087	3014.5743	3054.767	3091.7363	3129.3594	3133.6966	3215.8127	3229.5541
C1CC11COCO1	C1CC21COCO2	
InChI=1S/C5H8O2/c1-2-5(1)3-6-4-7-5/h1-4H2	InChI=1S/C5H8O2/c1-2-5(1)3-6-4-7-5/h1-4H2
