16
gdb 2717	17.06369	0.82281	0.79668	4.7059	60.46	-0.2605	0.0222	0.2827	1360.9697	0.135215	-362.899677	-362.890941	-362.889997	-362.934562	28.327	
O	-0.1073574487	 1.4134788722	 0.0107934629	-0.41694
C	 0.0093928099	 0.0007829686	 0.001934884	-0.073277
C	-1.401646639	-0.5741191558	 0.0121519292	-0.182209
C	-1.4072085399	-2.0941634644	 0.0038222842	-0.076101
O	-2.7698998085	-2.5252746778	 0.014065369	-0.181508
C	-2.9711686347	-3.855649177	 0.0099403634	 0.130547
N	-4.1453550666	-4.3191127594	 0.0181953686	-0.43771
H	 0.7775133415	 1.7897314542	 0.0044531017	 0.288053
H	 0.5514178156	-0.3501656934	-0.8921121188	 0.086953
H	 0.5682159876	-0.3598948106	 0.8816547042	 0.086946
H	-1.9313255182	-0.2136383133	 0.8997362074	 0.126514
H	-1.9480322103	-0.203940197	-0.8611965723	 0.126532
H	-0.9005617346	-2.4822645806	-0.8913937926	 0.106724
H	-0.8840794296	-2.4920516336	 0.8851499475	 0.106713
H	-2.0406923604	-4.4418048417	-0.0008939802	 0.080829
H	-4.1152630641	-5.3366034503	 0.0133950016	 0.227934
23.6482	72.9434	111.4922	115.0979	141.6153	268.5154	292.792	337.618	496.3774	638.6291	777.2957	821.5131	887.9832	988.673	1037.5996	1045.1445	1065.015	1098.8904	1145.0179	1174.5503	1229.91	1242.415	1297.7342	1307.2443	1311.2117	1323.2761	1413.1477	1436.2219	1469.2617	1498.9628	1518.6	1533.1803	1750.3911	2955.3179	2979.5821	2988.9739	3014.5081	3029.9188	3057.9253	3105.8976	3516.8513	3831.646
OCCCOC=N	OCCCO[CH][NH]	
InChI=1S/C4H9NO2/c5-4-7-3-1-2-6/h4-6H,1-3H2	InChI=1S/C4H9NO2/c5-4-7-3-1-2-6/h4-6H,1-3H2
