12
gdb 506	12.46112	1.50218	1.36312	0.7462	59.23	-0.2479	0.0422	0.2901	849.0499	0.093655	-232.036378	-232.028964	-232.028019	-232.069081	24.454	
C	 0.0280204008	 1.5012804476	 0.0098843302	-0.495971
C	 0.0126010587	 0.0456170938	 0.0022190167	 0.063694
C	-0.0023462869	-1.1568454645	-0.0040929437	 0.085531
C	-0.0146674249	-2.6212081544	-0.0118590109	-0.487941
C	-1.3609153682	-3.1983027214	-0.0021429954	 0.319524
C	-2.4588672552	-3.6838798706	 0.0056998053	-0.448214
H	 1.0531062813	 1.8877592202	 0.0022224784	 0.148273
H	-0.4863987464	 1.9087645348	-0.867278737	 0.149871
H	-0.4696017775	 1.8992730865	 0.9009848835	 0.14987
H	 0.5276391809	-2.9902723174	-0.8936209636	 0.1583
H	 0.5442957997	-2.9996865535	 0.8553920836	 0.1583
H	-3.4323130022	-4.1076574912	 0.0127532828	 0.198765
13.744	92.6392	195.8888	246.0787	320.3144	375.4258	376.2341	525.98	620.8536	646.1762	771.3067	934.8695	945.512	1053.3512	1054.2441	1165.2009	1229.9784	1335.8467	1415.0576	1454.2142	1477.9324	1479.1128	2246.6412	2383.2351	3005.5304	3028.3629	3028.7012	3089.5581	3089.9284	3507.8659
CC#CCC#C	CC#CCC#C	
InChI=1S/C6H6/c1-3-5-6-4-2/h1H,5H2,2H3	InChI=1S/C6H6/c1-3-5-6-4-2/h1H,5H2,2H3
