19
gdb 2265	3.48309	2.66239	2.04795	0.3243	71.11	-0.2419	0.0882	0.3301	754.1789	0.171696	-273.765782	-273.758453	-273.757509	-273.796444	28.518	
C	-0.1167499134	 1.559141131	 0.0259020537	-0.409112
C	 0.074593005	 0.0470787489	 0.0037292713	-0.016121
C	 1.1782262197	-0.5783151898	-0.9188647012	-0.246523
C	 1.7701900143	-1.2900519185	 0.3019110613	-0.08856
C	 2.1724955911	-0.269922223	 1.332259767	-0.326763
C	 0.7199672684	-0.6526627125	 1.2192519094	 0.368111
C	-0.0577036808	-1.2364507857	 2.3645203667	-0.498095
H	 0.8198397122	 2.0836721023	 0.2415354199	 0.113473
H	-0.4828625876	 1.922249954	-0.9410522766	 0.111593
H	-0.8464444721	 1.8549880431	 0.788201224	 0.111843
H	-0.8867366559	-0.4324176894	-0.213124884	 0.067064
H	 0.7650560417	-1.2531369639	-1.6719976341	 0.09747
H	 1.8472999541	 0.1311183523	-1.4197254483	 0.089539
H	 2.1612437036	-2.301066462	 0.3157993321	 0.078422
H	 2.6779016534	-0.665538309	 2.2082865088	 0.103977
H	 2.5325079984	 0.7094534887	 1.0241526642	 0.099745
H	-0.4756444706	-0.4510746661	 3.0069346309	 0.116938
H	-0.8938660889	-1.8502075481	 2.0085632229	 0.112227
H	 0.5764919173	-1.8696044922	 2.994252782	 0.114773
161.4255	199.0141	221.0054	242.4044	300.5609	346.5083	429.2391	498.7432	613.1076	681.7732	787.4858	828.8133	861.9711	882.5694	930.8126	967.9264	980.5387	1017.4497	1044.2391	1065.3796	1091.1121	1096.7548	1125.2772	1156.4168	1186.5426	1240.8835	1247.5816	1266.483	1301.8517	1365.0169	1395.8974	1409.3475	1424.7405	1483.5487	1486.6549	1495.7344	1497.5396	1498.984	1509.543	3014.7801	3025.8087	3033.9222	3034.6455	3070.6321	3088.9377	3090.2726	3096.6208	3101.1049	3105.7445	3171.1973	3191.2824
CC1CC2CC12C	C[C@H]1C[C@H]2C[C@@]12C	
InChI=1S/C7H12/c1-5-3-6-4-7(5,6)2/h5-6H,3-4H2,1-2H3	InChI=1S/C7H12/c1-5-3-6-4-7(5,6)2/h5-6H,3-4H2,1-2H3/t5-,6-,7-/m0/s1
