11
gdb 281	5.43774	3.54714	2.17517	1.1652	43.45	-0.2416	-0.0632	0.1784	547.5835	0.083247	-322.482659	-322.475927	-322.474982	-322.513285	22.796	
C	 0.0117679797	 1.4789204361	 0.0022605922	-0.471459
C	-0.0094290386	-0.0246291855	 0.0236161942	 0.31186
O	-0.100976425	-0.6961482186	 1.026511306	-0.299122
C	 0.096276274	-0.7105233648	-1.3613077256	 0.309084
N	 0.0705484001	-2.0575315582	-1.2656430635	-0.514072
O	 0.1897506555	-0.0638933263	-2.3872685131	-0.347051
H	 0.9324547272	 1.8286158277	-0.4754665911	 0.161607
H	-0.8078324237	 1.8512291774	-0.6204448448	 0.161608
H	-0.0676292212	 1.867933659	 1.017290425	 0.13905
H	-0.0096413306	-2.4769370092	-0.3534276035	 0.279056
H	 0.1326542624	-2.6235775677	-2.0944398256	 0.269439
67.3365	112.5755	256.4997	310.6127	385.8731	415.4131	519.7561	557.3604	641.4402	719.3878	739.4034	970.5428	1034.1373	1092.8312	1189.3455	1364.3079	1391.254	1450.3938	1457.1208	1587.3631	1799.3968	1813.2874	3051.5483	3112.3297	3164.4744	3597.5977	3739.4805
CC(=O)C(N)=O	CC(=O)C(=O)N	
InChI=1S/C3H5NO2/c1-2(5)3(4)6/h1H3,(H2,4,6)	InChI=1S/C3H5NO2/c1-2(5)3(4)6/h1H3,(H2,4,6)
