13
gdb 2788	4.46035	2.38486	1.65869	3.3045	50.33	-0.2558	-0.0038	0.252	723.4941	0.101175	-381.595252	-381.588423	-381.587479	-381.626469	23.279	
C	-0.1511591151	 1.3929110684	-0.1514637196	-0.251182
O	 0.2709062922	 0.060737346	 0.1072258994	-0.238807
C	 0.7800043528	-0.5797898904	-1.0188784181	-0.043339
C	 1.1186113629	-2.0624734416	-0.8077491057	-0.110466
O	 0.1720509545	-2.4416069465	-1.8608991984	-0.236404
C	-0.2424398296	-1.1451509173	-2.0371521084	 0.430385
O	-1.1118200564	-0.7421530044	-2.7400467231	-0.31889
H	 0.6871239178	 2.0116811338	-0.5050462189	 0.112616
H	-0.9532427312	 1.4221070855	-0.8981943999	 0.145448
H	-0.5184880455	 1.7945782426	 0.7945635122	 0.13687
H	 1.573463473	 0.0064462626	-1.5069598541	 0.102744
H	 2.1300506725	-2.3850477168	-1.057778146	 0.12994
H	 0.8017191821	-2.4500468319	 0.1616202107	 0.141083
93.3542	138.053	170.3409	243.715	310.1395	413.9603	512.4616	709.6524	752.9584	844.1343	934.1864	958.8567	1036.6743	1092.3402	1122.6057	1156.817	1172.2558	1184.212	1245.513	1247.0035	1327.8367	1390.8836	1481.0236	1488.6365	1507.592	1511.8191	1933.8365	2992.016	2996.9919	3068.9458	3084.7206	3134.8833	3152.479
COC1COC1=O	CO[C@H]1COC1=O	
InChI=1S/C4H6O3/c1-6-3-2-7-4(3)5/h3H,2H2,1H3	InChI=1S/C4H6O3/c1-6-3-2-7-4(3)5/h3H,2H2,1H3/t3-/m0/s1
