13
gdb 1071	7.59039	2.03649	1.62227	0.9543	55.31	-0.2094	0.0248	0.2342	727.1103	0.102566	-344.463291	-344.457126	-344.456181	-344.493322	22.554	
C	-0.0286632613	 1.3931362979	 0.0359579793	-0.248802
O	-0.0093980023	-0.0228986451	 0.0229176849	-0.254798
C	 0.6017674181	-0.5756905198	-1.0482180128	 0.326092
C	 1.2044636277	 0.0137017965	-2.122765371	-0.155043
O	 1.6875172135	-0.9560176729	-2.9608283028	-0.14848
C	 1.3839806097	-2.1523028251	-2.4053771888	 0.023344
C	 0.7194660489	-1.993260959	-1.2334596817	-0.306003
H	 0.9908643213	 1.8021181459	 0.0420642593	 0.122486
H	-0.5645940641	 1.7890830118	-0.8374026488	 0.122479
H	-0.5466873264	 1.6927607486	 0.9476673807	 0.135961
H	 1.3690223814	 1.0308847073	-2.4298996986	 0.129997
H	 1.704075091	-3.021210915	-2.9571637729	 0.136088
H	 0.3513842226	-2.7597051212	-0.5706564266	 0.116678
110.1116	219.8521	235.8517	349.0405	474.0626	609.2289	645.4471	665.9945	694.0909	766.9845	825.4882	882.8876	988.3333	1040.8827	1082.6474	1102.9767	1181.9219	1208.3539	1226.9495	1268.3525	1321.6518	1420.1316	1474.7006	1484.8945	1508.3348	1549.6226	1649.6471	2998.5662	3054.4135	3140.9181	3260.5016	3282.5454	3295.7482
COC1=COC=C1	COc1cocc1	
InChI=1S/C5H6O2/c1-6-5-2-3-7-4-5/h2-4H,1H3	InChI=1S/C5H6O2/c1-6-5-2-3-7-4-5/h2-4H,1H3
