16
gdb 1481	4.7337	1.5545	1.3371	3.3866	59.65	-0.2637	0.0184	0.2822	921.8074	0.135273	-362.909074	-362.900811	-362.899866	-362.94209	28.59	
C	-0.0163950991	 1.5808752149	-0.0195729651	-0.386505
C	 0.0400832789	 0.0575539035	 0.0095401631	 0.09487
C	 0.7607735901	-0.4973136008	 1.2397252074	-0.061828
O	 0.1297669679	-0.1086478507	 2.4416501975	-0.417513
O	-1.2915183123	-0.4897065049	 0.0904585529	-0.208554
C	-1.9717839695	-0.6644329434	-1.0573582407	 0.129366
N	-3.1732742683	-1.0491534531	-1.0293009104	-0.441697
H	 0.991918161	 1.9942708913	-0.1222830979	 0.121367
H	-0.6182265748	 1.9357132403	-0.8611062284	 0.118526
H	-0.4516309017	 1.9535146592	 0.9101123738	 0.146802
H	 0.5319188594	-0.3293339305	-0.8945440917	 0.081261
H	 0.8208468196	-1.5924777771	 1.1497079097	 0.097787
H	 1.7819795378	-0.1038555098	 1.2733376127	 0.11138
H	-0.7822917158	-0.4176259883	 2.3837074444	 0.298609
H	-1.3726994776	-0.4560697769	-1.9551452106	 0.086194
H	-3.5272308656	-1.1527562939	-1.9778980467	 0.229936
64.2719	104.9035	117.7993	207.2481	221.1224	318.0292	328.3186	426.1805	443.1938	577.288	671.1568	816.41	846.7147	916.389	928.4747	1014.9277	1044.2436	1080.528	1111.3694	1144.5264	1154.0568	1237.4419	1297.8829	1344.6169	1364.1222	1389.7092	1415.6532	1421.4843	1432.0706	1483.7885	1496.2411	1499.1717	1744.6085	2990.0859	3007.3228	3019.5234	3045.9366	3081.3272	3114.2998	3139.625	3519.6421	3796.4269
CC(CO)OC=N	C[C@@H](CO)O[CH][NH]	
InChI=1S/C4H9NO2/c1-4(2-6)7-3-5/h3-6H,2H2,1H3	InChI=1S/C4H9NO2/c1-4(2-6)7-3-5/h3-6H,2H2,1H3/t4-/m0/s1
