17
gdb 4069	6.68866	0.96283	0.89045	1.7717	68.98	-0.2403	0.0083	0.2487	1259.3462	0.140452	-400.938864	-400.930222	-400.929278	-400.973415	31.014	
O	 0.1055909515	 1.2220137037	-0.434055979	-0.420841
C	 0.0112645367	-0.1397572898	-0.0458166028	-0.08794
C	-1.4540002819	-0.4618889741	 0.1628159512	 0.038517
C	-2.3393068621	-0.4665543822	-1.1292222041	-0.323693
C	-2.6931863053	-1.9047423223	-0.8132181117	 0.424485
C	-1.7879997348	-1.9706137682	 0.4011462362	-0.354377
N	-3.5015176405	-2.6939465606	-1.3840031776	-0.228622
O	-3.5291844206	-3.9420296372	-0.7284640675	-0.396649
H	 1.0288436394	 1.424198393	-0.6111934648	 0.288303
H	 0.4260244146	-0.806093927	-0.8214043705	 0.083312
H	 0.5698800151	-0.3338346011	 0.8847510979	 0.087908
H	-1.8577592898	 0.1909047251	 0.9402420484	 0.086549
H	-3.1781474861	 0.2338131818	-1.1394129566	 0.124201
H	-1.7701298427	-0.3300369274	-2.0542416486	 0.124253
H	-0.9397217663	-2.6546850859	 0.2843003782	 0.121438
H	-2.2919652876	-2.2175374118	 1.3393962804	 0.127837
H	-4.1762739899	-4.4283118159	-1.250241409	 0.30532
14.5821	103.2865	185.8506	221.9435	256.7168	264.9084	341.7176	385.7816	454.6351	469.3311	530.2525	703.6152	783.5139	798.5223	904.8879	913.5325	961.9427	992.2852	1037.0257	1070.2415	1082.193	1115.7831	1181.1788	1182.7898	1216.454	1233.6324	1260.6703	1281.5935	1285.115	1357.9903	1401.9116	1449.8002	1461.4674	1469.1545	1519.5604	1783.1195	2952.6162	2982.0593	3045.1148	3057.2191	3079.6897	3099.9991	3107.8579	3819.0025	3830.6166
OCC1CC(C1)=NO	OC[C@H]1CC(=NO)C1	
InChI=1S/C5H9NO2/c7-3-4-1-5(2-4)6-8/h4,7-8H,1-3H2	InChI=1S/C5H9NO2/c7-3-4-1-5(2-4)6-8/h4,7-8H,1-3H2/t4-
