15
gdb 4163	4.66134	1.21678	1.02153	2.1034	61.6	-0.2513	-0.0099	0.2414	1095.7539	0.117389	-436.858212	-436.850107	-436.849163	-436.891167	28.842	
O	 0.0697670099	 1.3611362044	-0.1803907842	-0.416995
C	 0.0243753561	 0.041374961	 0.3188306625	-0.06434
C	-1.3600348347	-0.5546462772	 0.0945205618	 0.021062
O	-1.680554836	-0.5616306286	-1.3315413858	-0.309414
C	-1.8024098207	-2.0069003113	-1.3677477119	-0.162523
C	-1.4988382615	-2.0563317277	 0.1083796863	 0.346785
N	-1.3806634713	-2.9136911608	 1.0270012532	-0.222622
O	-1.5891829407	-4.2102261202	 0.5321483697	-0.388248
H	-0.2173897395	 1.309764156	-1.1004441239	 0.295391
H	 0.7803546234	-0.6034882969	-0.1556852683	 0.089411
H	 0.242896931	 0.0863453735	 1.3905944164	 0.12221
H	-2.1144597505	 0.0052911546	 0.6608799863	 0.108955
H	-2.8075739192	-2.3361520317	-1.6575483959	 0.134397
H	-1.0637114769	-2.4810452994	-2.0254883522	 0.132936
H	-1.4796472496	-4.7528428756	 1.3208308459	 0.312995
88.2003	99.0557	139.4779	209.3622	274.3031	339.8861	382.5743	456.4007	468.7032	504.9575	614.7773	728.8108	853.7357	897.9129	979.6422	991.46	1010.0417	1045.5632	1086.2665	1096.7686	1131.1181	1176.5529	1208.9106	1265.8417	1306.3759	1331.4048	1389.4039	1415.9394	1426.4357	1494.4285	1499.7392	1814.7244	2985.1505	3022.4569	3038.8863	3065.6678	3085.3096	3786.0243	3815.3788
OCC1OCC1=NO	OC[C@H]1OCC1=NO	
InChI=1S/C4H7NO3/c6-1-4-3(5-7)2-8-4/h4,6-7H,1-2H2	InChI=1S/C4H7NO3/c6-1-4-3(5-7)2-8-4/h4,6-7H,1-2H2/t4-/m1/s1
