18
gdb 1276	7.61584	1.04954	0.95462	3.43	64.98	-0.2427	0.0361	0.2788	1222.1374	0.158721	-327.025329	-327.01624	-327.015295	-327.060099	31.054	
C	 0.0167375882	 1.5529447604	 0.0988099977	-0.379443
C	-0.0478591872	 0.0281388115	-0.0238393598	-0.170808
C	 0.7318440693	-0.5048097557	-1.2292821643	-0.143782
C	 0.6754033248	-2.0285047362	-1.356373574	-0.313538
C	 1.3194791489	-2.5331330307	-2.6470572532	 0.405129
N	 1.7949039631	-3.8140018605	-2.5880507918	-0.521961
O	 1.4016997998	-1.8594494275	-3.6555942928	-0.35777
H	 1.0506794021	 1.8967734667	 0.2136943866	 0.114532
H	-0.3936600683	 2.0378716353	-0.7936517743	 0.117512
H	-0.5509969998	 1.9095739552	 0.9639368743	 0.109405
H	 0.3386726428	-0.429709003	 0.8969673015	 0.089719
H	-1.096667577	-0.2893944187	-0.1009078919	 0.092536
H	 0.3474897813	-0.0681546487	-2.1567351686	 0.123229
H	 1.7800250976	-0.18678199	-1.1609488825	 0.099593
H	 1.1394222119	-2.5127943058	-0.4880224812	 0.09851
H	-0.3723467679	-2.3617036253	-1.3674389717	 0.123905
H	 1.6464585637	-4.4025264211	-1.7874442978	 0.255087
H	 2.1289664368	-4.234288986	-3.4400117261	 0.258146
27.9196	78.0971	117.174	135.8616	169.3748	245.9502	302.011	330.8309	467.4933	520.1422	610.9498	664.0351	735.549	803.5427	853.9611	908.3843	937.7707	1030.5649	1073.0898	1074.6878	1122.5801	1137.0262	1236.2671	1251.8414	1309.7764	1321.0434	1332.3496	1387.69	1405.5989	1415.4289	1464.3826	1485.3805	1497.1776	1499.5598	1512.2537	1616.5249	1797.9405	3006.9881	3011.1549	3028.2708	3030.5389	3039.0301	3049.7185	3087.5304	3098.2193	3101.5772	3600.205	3737.2214
CCCCC(N)=O	CCCCC(=O)N	
InChI=1S/C5H11NO/c1-2-3-4-5(6)7/h2-4H2,1H3,(H2,6,7)	InChI=1S/C5H11NO/c1-2-3-4-5(6)7/h2-4H2,1H3,(H2,6,7)
