11
gdb 99	10.85394	4.52867	3.62328	2.4158	38.58	-0.2465	0.0604	0.3069	374.4087	0.091005	-268.248371	-268.243234	-268.24229	-268.276572	17.344	
O	 0.0772171436	 1.4173872407	-0.1443901587	-0.422684
C	 0.0167515637	 0.0248479128	 0.0323381688	 0.079822
C	 0.1119382284	-0.543925412	 1.470007444	-0.093519
O	-1.1638780437	-1.2009319082	 1.3244160463	-0.271457
C	-1.4193017829	-0.5204092975	 0.0775067254	-0.075243
H	 1.0002221389	 1.6788947872	-0.2169746558	 0.288253
H	 0.6603649544	-0.5038087893	-0.6818032706	 0.079303
H	 0.9180658894	-1.25385265	 1.6887862769	 0.098937
H	 0.0914620752	 0.2442748721	 2.234992321	 0.100778
H	-2.1613968349	 0.2818396014	 0.1822243602	 0.11065
H	-1.7286745621	-1.2094115672	-0.7155088674	 0.10516
96.8599	254.7499	372.6084	443.3668	706.1655	872.6033	888.9672	990.8367	1004.2803	1030.402	1095.3699	1152.6733	1158.2687	1186.6516	1243.6434	1298.0739	1312.6546	1354.5954	1446.3994	1498.9931	1527.3645	3004.6486	3020.2925	3021.3035	3064.5957	3076.7917	3823.3083
OC1COC1	OC1COC1	
InChI=1S/C3H6O2/c4-3-1-5-2-3/h3-4H,1-2H2	InChI=1S/C3H6O2/c4-3-1-5-2-3/h3-4H,1-2H2
