17
gdb 2438	4.0887	3.38499	2.62706	0.2213	67.81	-0.2297	0.0237	0.2535	610.8931	0.151987	-272.580839	-272.575444	-272.5745	-272.609505	22.802	
C	-0.0367869463	 1.5294043708	-0.0250416756	-0.211038
C	 1.5188388788	 1.4567925859	-0.004951416	-0.01144
C	 1.3523302352	 0.121997867	 0.7800626034	-0.211039
C	-0.0010986808	-0.0304215125	 0.0177239225	-0.047724
C	 0.2973865445	-0.5350493742	-1.3794198946	-0.057338
C	 1.2834782498	 0.0472796203	-2.0628310789	-0.060414
C	 2.0570552207	 1.1781184462	-1.4207295275	-0.245707
H	-0.4275796282	 1.9539509831	 0.9037354947	 0.091572
H	-0.524367309	 1.9988021375	-0.8837221064	 0.090732
H	 2.0666729465	 2.2719456224	 0.4747942413	 0.056272
H	 2.1014761836	-0.6616130658	 0.6381611225	 0.090733
H	 1.2008070885	 0.3041229915	 1.8475157438	 0.091572
H	-0.8213475285	-0.5635208708	 0.501054648	 0.054915
H	-0.2878086894	-1.3500611547	-1.794460315	 0.082402
H	 1.5516322353	-0.2634706144	-3.0687246281	 0.08298
H	 1.9869648494	 2.0848596804	-2.0386040232	 0.101762
H	 3.12721677	 0.9295908073	-1.3777312508	 0.101762
278.1175	343.6446	426.4088	485.6089	504.4072	670.5692	719.75	818.7373	818.873	866.8721	870.25	929.1234	933.4445	939.1436	958.1258	979.7302	1034.6079	1079.8977	1091.185	1105.2504	1112.1655	1130.9244	1186.5591	1205.964	1246.5433	1263.3079	1289.3125	1324.7956	1334.594	1367.261	1401.5302	1472.9447	1476.2379	1508.7967	1701.3188	2999.5456	3023.0957	3047.85	3050.8572	3071.1148	3090.9125	3107.2231	3110.1306	3156.4873	3181.4161
C1C2CC1C=CC2	C1[C@H]2C[C@@H]1C=CC2	
InChI=1S/C7H10/c1-2-6-4-7(3-1)5-6/h1-2,6-7H,3-5H2	InChI=1S/C7H10/c1-2-6-4-7(3-1)5-6/h1-2,6-7H,3-5H2/t6-,7+
