13
gdb 1206	7.79286	1.33457	1.15589	1.9312	56.66	-0.2876	-0.0022	0.2855	957.2002	0.100521	-340.648166	-340.640573	-340.639629	-340.680495	25.531	
C	-0.1625126852	 1.4227821775	 0.0115739797	-0.445746
C	 0.0994767805	-0.0540430874	 0.0010564561	 0.426833
N	 1.2670388677	-0.5407688115	-0.012811653	-0.509562
O	-1.0985557456	-0.7271485255	 0.0087865648	-0.232983
C	-1.0435867494	-2.1416251523	 0.000486353	-0.234109
C	-2.4139292278	-2.6546893188	 0.0109713463	 0.277483
N	-3.4803969976	-3.0957528206	 0.0191377689	-0.282203
H	 0.7847927918	 1.9592931795	 0.005674093	 0.154495
H	-0.7565848377	 1.7060195365	-0.8624752913	 0.148408
H	-0.7402010074	 1.6963876663	 0.8995567093	 0.148402
H	 1.2984408987	-1.5584588193	-0.0187016886	 0.223801
H	-0.5282982827	-2.515114852	-0.8951719965	 0.162587
H	-0.5110131053	-2.5248806123	 0.8818054284	 0.162593
62.9288	134.7113	136.4509	153.4295	291.0836	386.9937	387.9759	546.4319	555.5443	601.8751	855.24	885.7455	965.2115	993.7046	1039.738	1076.9763	1084.1759	1126.8856	1251.3547	1300.2318	1394.5273	1417.0123	1473.3328	1476.9032	1495.6599	1745.1412	2378.4695	3008.6762	3045.7196	3055.228	3115.048	3174.1732	3506.9886
CC(=N)OCC#N	C[C]([NH])OCC#N	
InChI=1S/C4H6N2O/c1-4(6)7-3-2-5/h6H,3H2,1H3	InChI=1S/C4H6N2O/c1-4(6)7-3-2-5/h6H,3H2,1H3
