16
gdb 4575	5.63823	1.49982	1.19478	2.7228	76.66	-0.2052	-0.0122	0.193	991.7154	0.132453	-342.852486	-342.84499	-342.844045	-342.884484	28.187	
C	-0.0280647642	 1.5120698253	-0.0095318678	-0.466569
C	-0.014568668	 0.0054475844	 0.0283515856	 0.307002
N	-0.2269970425	-0.6312611882	-1.1325829383	-0.308362
C	-0.2249468705	-1.9587314793	-1.1465540808	-0.059364
C	-0.0143119306	-2.7625242835	-0.0153647597	 0.271263
N	-0.0895946408	-4.1540586907	-0.0931154538	-0.592709
C	 0.2103531306	-2.0951370514	 1.190811055	-0.147283
C	 0.2091363177	-0.7067873821	 1.2079091687	-0.146885
H	 0.1650162178	 1.9409866154	 0.9772917566	 0.111695
H	 0.7293443908	 1.8886759418	-0.7049378189	 0.133184
H	-0.9963887617	 1.8817573658	-0.36307928	 0.134059
H	-0.4019198002	-2.4336119275	-2.1118919309	 0.088541
H	 0.0880860665	-4.5318853213	-1.0130290995	 0.248551
H	 0.4416918583	-4.6462102996	 0.6108603566	 0.246917
H	 0.3806086173	-2.6593005416	 2.1035554173	 0.088903
H	 0.3840140894	-0.1759140777	 2.13795666	 0.091056
49.2366	137.1222	279.3095	302.9833	341.1885	407.7396	428.66	487.5033	519.6293	625.3079	656.018	754.4102	762.9919	852.668	863.89	930.9867	964.188	1003.9105	1035.1514	1059.9712	1101.82	1163.7107	1259.7387	1298.2368	1322.718	1338.4833	1411.5842	1445.8402	1476.6442	1494.3988	1525.1333	1613.3132	1640.7416	1660.0776	3035.7784	3093.4159	3117.4998	3118.7158	3161.8322	3185.0142	3557.941	3654.7013
CC1=NC=C(N)C=C1	Cc1ncc(N)cc1	
InChI=1S/C6H8N2/c1-5-2-3-6(7)4-8-5/h2-4H,7H2,1H3	InChI=1S/C6H8N2/c1-5-2-3-6(7)4-8-5/h2-4H,7H2,1H3
