12
gdb 857	6.92112	2.18825	1.66798	3.1172	52.28	-0.1786	0.0495	0.2281	688.7054	0.092282	-356.732185	-356.72579	-356.724846	-356.761938	24.096	
N	-0.0328994048	 1.33904875	 0.1452651592	-0.594276
C	-0.0210093853	-0.0483800601	 0.0209756026	 0.397167
N	-1.0869377682	-0.8202061167	-0.0557478979	-0.396925
C	-0.5941402655	-2.1027258067	-0.0623954224	 0.345943
O	-1.42990855	-3.1626155292	-0.1383447588	-0.440317
C	 0.7683493836	-2.1257384575	-0.0024365838	-0.219513
N	 1.1259092104	-0.76976251	 0.044260445	-0.282573
H	 0.5723263653	 1.8103278311	-0.5168554146	 0.248483
H	-0.9802033835	 1.681153527	 0.0452882773	 0.260852
H	-2.3210173455	-2.7961056145	-0.1787800002	 0.297468
H	 1.493587529	-2.9182928556	-0.0193797174	 0.122402
H	 2.0456427847	-0.4082829179	 0.2276555909	 0.261288
215.4209	238.4235	316.7562	319.1549	357.9825	431.6346	492.8375	603.991	642.0406	674.2917	723.8065	761.6229	799.2517	1016.7269	1025.5867	1098.3133	1146.2539	1182.7058	1298.297	1338.1512	1419.8288	1528.4476	1599.547	1653.2065	1680.0099	3300.7385	3528.405	3627.0163	3676.3676	3810.2994
NC1=NC(O)=CN1	Nc1nc(O)c[nH]1	
InChI=1S/C3H5N3O/c4-3-5-1-2(7)6-3/h1,7H,(H3,4,5,6)	InChI=1S/C3H5N3O/c4-3-5-1-2(7)6-3/h1,7H,(H3,4,5,6)
