12
gdb 2058	5.45422	2.7998	1.89843	4.3332	52.29	-0.2291	-0.0021	0.2271	625.7856	0.092239	-360.560766	-360.554947	-360.554003	-360.59055	21.22	
O	 0.0024435976	-0.0231872143	 0.2030364042	-0.377337
C	-0.0140557071	 1.1640599549	 0.0118916822	 0.474491
N	-1.1887203786	 1.8966667718	-0.0788715397	-0.377048
C	-1.2156370236	 3.2899384972	-0.009310106	 0.020752
C	-0.1078696601	 3.9854677036	-0.2517264254	-0.141426
C	 1.1178499827	 3.2160995491	-0.6384183612	-0.11882
O	 1.1261271911	 1.8809016932	-0.0844830741	-0.243243
H	-2.015673088	 1.360527108	 0.1265237174	 0.268319
H	-2.1694595534	 3.7280771875	 0.2576100897	 0.12533
H	-0.0789427806	 5.0642419106	-0.1902241493	 0.110289
H	 1.2164561807	 3.1297239083	-1.7314702658	 0.124427
H	 2.0327499993	 3.68089787	-0.2622143218	 0.134267
120.6526	148.5044	427.2038	470.2387	531.0784	565.5155	582.9941	707.4735	770.4142	829.8264	902.8444	937.2769	970.4749	1038.1881	1070.5122	1137.9774	1178.0452	1245.7996	1263.504	1408.927	1435.8002	1465.0231	1506.1135	1735.9583	1856.1293	2985.8036	3090.603	3208.0753	3236.8398	3660.4351
O=C1NC=CCO1	O=C1NC=CCO1	
InChI=1S/C4H5NO2/c6-4-5-2-1-3-7-4/h1-2H,3H2,(H,5,6)	InChI=1S/C4H5NO2/c6-4-5-2-1-3-7-4/h1-2H,3H2,(H,5,6)
