17
gdb 2796	4.28029	2.04792	1.5593	2.7308	59.76	-0.2454	0.0659	0.3113	818.1751	0.148384	-346.831172	-346.823604	-346.82266	-346.863037	27.262	
C	-0.2969497619	 1.5301917347	-0.1596179524	-0.41651
C	 0.0087635021	 0.0455931753	-0.013659509	-0.039918
C	 1.3546218373	-0.4941184802	-0.5463210767	-0.080591
O	 1.6391566476	-1.1573465958	 0.7056269412	-0.305843
C	 0.4876779455	-0.538790455	 1.3438125648	 0.109851
C	 0.9696588354	 0.3939417396	 2.4451966298	-0.0662
O	 1.7418710579	-0.3359654889	 3.3793340505	-0.423645
H	 0.5311515435	 2.1571218007	 0.1840642405	 0.12407
H	-0.4846448743	 1.7789937396	-1.2096440353	 0.121004
H	-1.1905645934	 1.8109520323	 0.4076166213	 0.123352
H	-0.8293736092	-0.5393502897	-0.4020823842	 0.086928
H	 1.3114895561	-1.2027073499	-1.3808309127	 0.106116
H	 2.0974966706	 0.2817961753	-0.7776297758	 0.098271
H	-0.1609418193	-1.3061428534	 1.7840806246	 0.08325
H	 1.5499957026	 1.2247978769	 2.0144349201	 0.081953
H	 0.1211359278	 0.8235895434	 2.9894145464	 0.105787
H	 2.3908409115	-0.8211191548	 2.8536373368	 0.292126
81.7551	116.5181	179.8392	223.2582	282.0912	361.1056	476.1645	480.0792	504.0781	709.4658	833.76	880.5792	921.7572	932.2928	997.3454	1015.3616	1045.277	1082.3247	1135.5103	1149.5521	1160.8902	1187.3187	1216.8413	1268.4358	1291.3266	1338.1895	1350.5839	1389.9606	1401.813	1418.5365	1439.4939	1495.2317	1501.0042	1503.7	1528.5572	2980.0339	3005.54	3030.2369	3035.3909	3055.3604	3069.1206	3073.704	3097.4974	3111.7401	3774.4224
CC1COC1CO	C[C@H]1CO[C@H]1CO	
InChI=1S/C5H10O2/c1-4-3-7-5(4)2-6/h4-6H,2-3H2,1H3	InChI=1S/C5H10O2/c1-4-3-7-5(4)2-6/h4-6H,2-3H2,1H3/t4-,5-/m0/s1
