15
gdb 1868	4.85801	2.2978	1.8349	4.3568	56.59	-0.2622	0.0169	0.2791	716.7479	0.126049	-345.713205	-345.706638	-345.705693	-345.743788	24.168	
C	 0.3474390881	 1.4555601377	 0.0522513085	-0.392944
C	-0.1017754145	 0.0021197899	-0.038070987	 0.125667
C	 0.4563874923	-0.7641594651	-1.2587577767	-0.240665
C	 1.71323379	-1.4310644907	-0.6950203354	-0.35553
C	 1.4295866484	-1.5353066154	 0.8008809991	 0.428252
O	 1.9985798785	-2.1930760045	 1.6220982212	-0.335545
O	 0.3815986353	-0.7253148772	 1.11384656	-0.223924
H	 1.4364245076	 1.5391665788	-0.0277883798	 0.123112
H	-0.1020564537	 2.0403100034	-0.7566421298	 0.1218
H	 0.0410549636	 1.8910350346	 1.0067678488	 0.137799
H	-1.1930568403	-0.0513259559	 0.0071981818	 0.097838
H	-0.2616426619	-1.5207974191	-1.5870627406	 0.118895
H	 0.6507288394	-0.098551562	-2.1022858744	 0.113816
H	 1.9331463004	-2.4176315202	-1.1045701207	 0.140758
H	 2.6113341069	-0.8174438542	-0.8249390252	 0.140671
110.0679	129.3844	247.3088	335.7523	424.6664	494.4423	541.1656	659.7495	709.9742	790.0883	812.728	895.2326	952.9432	975.7692	1014.5773	1058.2709	1102.5233	1128.2789	1173.454	1200.3532	1230.4396	1299.3409	1327.295	1366.5814	1390.633	1411.5582	1465.111	1486.7614	1496.5856	1500.8475	1883.2624	3038.4895	3059.4289	3061.8791	3072.7093	3111.172	3113.8348	3125.0563	3131.3229
CC1CCC(=O)O1	C[C@H]1CCC(=O)O1	
InChI=1S/C5H8O2/c1-4-2-3-5(6)7-4/h4H,2-3H2,1H3	InChI=1S/C5H8O2/c1-4-2-3-5(6)7-4/h4H,2-3H2,1H3/t4-/m0/s1
