8
gdb 53	10.10926	9.69372	4.94857	1.5081	35.17	-0.2509	0.001	0.2519	269.2444	0.058593	-246.02915	-246.025614	-246.024669	-246.055309	12.04	
O	-0.0380829769	 1.3564396488	 0.0097519256	-0.136277
C	 1.2649698228	 1.7685531855	-0.000617439	-0.026165
C	 2.0495575028	 0.6663003289	-0.0140604728	-0.10193
N	 1.2422707506	-0.4673206635	-0.0123754129	-0.253693
C	 0.040198201	 0.0056157687	 0.0018356903	 0.087026
H	 1.4351390718	 2.8309526491	 0.0034082325	 0.149009
H	 3.1253289835	 0.5978301503	-0.0248075717	 0.128482
H	-0.8938770656	-0.5334215378	 0.0079693479	 0.153549
630.9671	669.556	769.0053	844.1166	870.5927	917.4077	929.9652	1078.4753	1106.1206	1124.4341	1173.5584	1277.058	1360.2452	1533.5059	1579.7027	3268.8186	3280.1058	3305.5712
O1C=CN=C1	o1ccnc1	
InChI=1S/C3H3NO/c1-2-5-3-4-1/h1-3H	InChI=1S/C3H3NO/c1-2-5-3-4-1/h1-3H
