11
gdb 131	29.05433	2.28555	2.17705	2.7959	40.04	-0.2577	-0.0282	0.2295	546.3932	0.088447	-268.27324	-268.267033	-268.266088	-268.30312	19.186	
C	 0.093479726	 1.4110129663	 0.0586580136	-0.228196
O	 0.0669780218	 0.0020138649	 0.046430914	-0.231015
C	 0.4499829489	-0.5483905914	-1.185484107	-0.140092
C	 0.3807645715	-2.0615840401	-1.071035342	 0.139723
O	 0.6514519504	-2.8113694971	-1.9703854392	-0.236536
H	 1.103497289	 1.8000551243	-0.1433152595	 0.110758
H	-0.5948891514	 1.8367304394	-0.6877944621	 0.110768
H	-0.2188063665	 1.7334840829	 1.0544762253	 0.134629
H	-0.2097961209	-0.224343248	-2.0092010406	 0.121137
H	 1.4777188835	-0.260757651	-1.4681657852	 0.121116
H	 0.053376958	-2.4162019402	-0.0687946174	 0.097709
63.7625	97.0188	212.9748	236.6047	428.1795	523.4311	742.5549	996.5074	1046.6619	1113.3111	1172.1604	1185.6864	1233.9398	1239.5312	1358.6223	1409.0646	1467.5848	1487.0651	1491.4674	1514.0046	1846.0288	2899.4419	2954.6054	2977.0485	2982.6423	3023.1395	3120.6612
COCC=O	COCC=O	
InChI=1S/C3H6O2/c1-5-3-2-4/h2H,3H2,1H3	InChI=1S/C3H6O2/c1-5-3-2-4/h2H,3H2,1H3
