10
gdb 79	10.20696	3.93135	2.9219	4.5676	35.87	-0.246	0.0273	0.2733	418.5967	0.078222	-284.360325	-284.354148	-284.353204	-284.390143	20.089	
N	-0.0811560708	 1.3180702605	 0.0127674216	-0.523012
C	 0.0544225853	-0.0447773257	 0.0815538817	 0.39199
O	 1.1216307352	-0.5978394955	 0.2094055294	-0.32629
C	-1.2868778639	-0.7901164217	 0.0617843484	-0.169518
O	-1.0460511353	-2.1395419501	-0.2395715766	-0.388483
H	 0.7662336557	 1.8599112849	-0.0448342532	 0.262297
H	-0.9302134621	 1.745674475	-0.3156561516	 0.254603
H	-1.7455969616	-0.6552133421	 1.0552669959	 0.11645
H	-1.960260612	-0.311492219	-0.6702625628	 0.089374
H	-1.8563729606	-2.6301764562	-0.0762547829	 0.292589
40.2004	196.7004	263.1522	273.9516	443.0532	490.4098	597.6337	665.5957	811.3554	1019.0566	1085.3751	1136.7115	1223.6954	1264.5022	1321.5251	1456.9974	1503.3785	1618.9498	1830.3903	2950.7779	2983.5816	3594.2721	3724.5991	3839.658
NC(=O)CO	NC(=O)CO	
InChI=1S/C2H5NO2/c3-2(5)1-4/h4H,1H2,(H2,3,5)	InChI=1S/C2H5NO2/c3-2(5)1-4/h4H,1H2,(H2,3,5)
