13
gdb 4087	3.70872	1.97223	1.29782	3.3316	65.73	-0.2331	-0.0718	0.1613	867.6964	0.095628	-398.583386	-398.576546	-398.575602	-398.614536	25.411	
O	-0.05208856	 1.3209063048	 0.0085665016	-0.34584
N	 0.0127332144	-0.0568257576	 0.0040659494	-0.203457
C	-1.1284117004	-0.6310240495	 0.0113134114	 0.278556
C	-1.2280110692	-2.1407446202	 0.0077456761	-0.339415
C	-2.7172723457	-2.3728123821	 0.0186000138	-0.071342
C	-3.4252204671	-1.2361563919	 0.0274007293	-0.156647
C	-2.5300167912	-0.0528486191	 0.023907804	 0.318451
O	-2.852821685	 1.1129943145	 0.0298190367	-0.322157
H	 0.8796473605	 1.5702385648	 0.0020158584	 0.314646
H	-0.7525878527	-2.5854497522	-0.8752828381	 0.141364
H	-0.7390376517	-2.5904832633	 0.8807733836	 0.141365
H	-3.136962337	-3.3726287184	 0.0189432387	 0.12105
H	-4.5028788351	-1.1373921498	 0.0360498353	 0.123425
86.6641	216.6093	267.5252	298.6509	368.7392	436.1512	484.8211	528.2409	675.2133	709.7124	718.7395	765.979	829.4857	960.1602	970.7971	1006.6341	1027.811	1085.0296	1136.9261	1159.2162	1226.4055	1297.9235	1363.3863	1423.3837	1458.3009	1645.1557	1710.8103	1804.1832	3032.1985	3059.2161	3195.737	3229.8675	3796.307
ON=C1CC=CC1=O	ON=C1CC=CC1=O	
InChI=1S/C5H5NO2/c7-5-3-1-2-4(5)6-8/h1,3,8H,2H2	InChI=1S/C5H5NO2/c7-5-3-1-2-4(5)6-8/h1,3,8H,2H2
