15
gdb 1262	7.25727	1.08525	0.96087	3.5208	68.51	-0.2523	-0.0439	0.2084	1200.2744	0.12236	-308.518276	-308.509654	-308.508709	-308.552603	28.531	
C	-0.0434039795	 1.53906737	-0.0312447143	-0.367038
C	 0.1398502751	 0.0105180406	-0.0286871032	-0.322775
C	 0.756256416	-0.4952483267	 1.1901640097	 0.068686
C	 1.2691220901	-0.8820336021	 2.2130739341	 0.020219
C	 1.884605091	-1.3517822743	 3.4393870813	 0.25144
C	 2.1014712927	-2.8498668909	 3.5261665428	-0.476453
O	 2.2005215229	-0.5897095214	 4.3288755783	-0.278154
H	 0.9199373409	 2.0451924056	 0.0697121708	 0.136605
H	-0.5087666174	 1.8620859675	-0.9667929732	 0.119714
H	-0.6795036684	 1.8546631637	 0.7995125552	 0.136599
H	-0.8309977476	-0.483336284	-0.1651972253	 0.140682
H	 0.7518469518	-0.2947641037	-0.887372802	 0.140692
H	 1.1449736557	-3.3743212183	 3.4267717055	 0.144308
H	 2.7368725762	-3.1860594447	 2.6997041816	 0.144302
H	 2.5669570106	-3.0978146113	 4.4812267886	 0.141173
29.9021	83.4502	114.8493	134.4825	189.2115	234.8013	390.4052	405.6813	471.4056	602.6957	603.5613	659.3696	780.6223	913.3325	971.4637	1042.733	1055.3473	1091.0787	1099.9947	1247.129	1284.5362	1348.508	1381.0533	1412.831	1460.862	1463.0872	1469.1658	1495.3215	1504.0252	1766.9295	2330.3453	3022.8251	3039.0488	3049.4412	3050.7255	3103.3644	3124.1598	3131.0876	3150.9711
CCC#CC(C)=O	CCC#CC(=O)C	
InChI=1S/C6H8O/c1-3-4-5-6(2)7/h3H2,1-2H3	InChI=1S/C6H8O/c1-3-4-5-6(2)7/h3H2,1-2H3
