13
gdb 4765	6.79177	1.3553	1.13782	1.7753	58.18	-0.2044	0.0454	0.2498	986.7898	0.093858	-435.740609	-435.732638	-435.731694	-435.774046	26.997	
C	 0.0256617125	 1.3885966543	 0.0718891897	-0.330801
N	 0.1814448903	-0.0552234145	 0.0464129221	-0.357835
C	 0.6392176196	-0.6010266434	-0.9793324764	 0.537142
O	 1.0445354752	-0.0419959887	-2.1576677988	-0.231255
C	 1.4582109615	-1.0890309781	-2.9942468219	-0.185153
C	 1.3114810559	-2.2244021974	-2.318889501	 0.381065
O	 1.5595317122	-3.498260531	-2.6252484191	-0.415478
O	 0.8097129119	-1.9702812744	-1.0660343646	-0.256962
H	 0.7666994751	 1.8273280467	 0.7509083278	 0.127769
H	 0.1312685241	 1.8693186031	-0.9081259853	 0.122862
H	-0.9620356376	 1.6329966381	 0.4759825922	 0.127725
H	 1.809856016	-0.8430922717	-3.9771598054	 0.159094
H	 1.2726829132	-4.0489448628	-1.8866808793	 0.321826
41.6698	78.1147	119.5417	206.5964	260.9041	331.1439	362.4535	553.8738	612.6821	657.7018	678.0743	720.4482	740.0023	884.3603	986.476	1075.0891	1103.2042	1115.9979	1137.5342	1191.7645	1205.6444	1318.7273	1391.2201	1448.3699	1494.4857	1503.4961	1800.9568	1858.5392	3013.5779	3072.7582	3087.6826	3330.0907	3815.6678
CN=C1OC=C(O)O1	CN=c1occ(O)o1	
InChI=1S/C4H5NO3/c1-5-4-7-2-3(6)8-4/h2,6H,1H3	InChI=1S/C4H5NO3/c1-5-4-7-2-3(6)8-4/h2,6H,1H3
