14
gdb 4510	3.65505	1.78971	1.2105	1.6334	61.11	-0.1727	0.0419	0.2146	941.1075	0.10665	-415.897901	-415.889571	-415.888627	-415.930576	29.454	
C	-0.0615394151	 1.4575326602	-0.0060896683	-0.496122
C	 0.0146563067	-0.0305855562	-0.0247634722	 0.332284
N	 0.0486525857	-0.7943155371	-1.1005107953	-0.369556
C	 0.1161891432	-2.0836760008	-0.6516060716	 0.202495
O	 0.167606235	-3.1628768391	-1.482563818	-0.461583
C	 0.1242068902	-2.1197435897	 0.71309465	 0.28411
O	 0.1784263236	-3.1063650301	 1.6464108682	-0.448192
N	 0.0586788917	-0.7997591479	 1.1085846829	-0.336196
H	 0.8014191473	 1.9105584618	 0.4971353809	 0.128496
H	-0.0813662148	 1.8145813672	-1.0367357377	 0.154387
H	-0.9648051598	 1.8201161196	 0.4997203515	 0.128638
H	 0.1433457494	-2.8127180756	-2.3801740146	 0.299784
H	 0.2214595802	-3.9454981422	 1.1755746518	 0.314023
H	 0.0487422967	-0.4850796502	 2.0642166224	 0.267432
77.9159	162.3448	183.1051	225.9364	255.1354	278.9181	280.7992	356.0608	457.4653	524.8401	618.8196	658.2729	662.0759	698.4877	836.3482	991.5936	1037.0041	1058.0734	1136.8528	1156.6864	1244.8016	1319.0613	1373.643	1411.8326	1447.7213	1480.117	1499.2113	1529.3523	1572.9569	1727.8444	3021.1834	3066.103	3144.3577	3666.4262	3819.575	3833.0013
CC1=NC(O)=C(O)N1	Cc1nc(O)c(O)[nH]1	
InChI=1S/C4H6N2O2/c1-2-5-3(7)4(8)6-2/h7-8H,1H3,(H,5,6)	InChI=1S/C4H6N2O2/c1-2-5-3(7)4(8)6-2/h7-8H,1H3,(H,5,6)
