16
gdb 861	6.31859	2.01406	1.55685	1.8965	68.88	-0.1849	0.0493	0.2342	810.2976	0.137479	-288.692943	-288.685603	-288.684659	-288.724105	26.775	
C	 0.0303044319	 1.492261949	 0.0827352854	-0.50421
C	 0.0027824234	 0.0058458208	-0.0530494686	 0.29848
C	-0.0960333839	-0.803441818	-1.1612414456	-0.214528
C	-0.0751048512	-2.1574809092	-0.7171039799	-0.214528
C	 0.0361104424	-2.150236013	 0.6541652086	 0.29848
C	 0.1038876292	-3.2661209057	 1.6435262522	-0.50421
N	 0.0822144514	-0.8280871746	 1.0418102888	-0.333147
H	 0.9582422934	 1.8522225926	 0.5459936349	 0.121933
H	-0.0444338219	 1.9553908324	-0.9038940349	 0.135962
H	-0.8028469953	 1.8718006103	 0.6885886826	 0.121936
H	-0.1748051374	-0.4568312647	-2.1809361449	 0.083063
H	-0.1348492043	-3.0426441474	-1.3327644491	 0.083063
H	 1.03720729	-3.2557262839	 2.22150103	 0.121932
H	-0.7238878167	-3.2363216598	 2.3640462027	 0.121936
H	 0.0512227143	-4.225428649	 1.123462089	 0.135962
H	 0.1628753245	-0.5145066098	 1.9940204189	 0.247874
111.0021	123.4429	183.5488	254.5499	288.715	391.7311	464.2177	602.788	637.0343	649.3536	699.704	781.5034	817.5857	972.2947	983.9647	1016.6039	1027.8503	1058.6152	1064.8258	1066.6226	1206.9889	1274.2067	1285.512	1413.6847	1417.0419	1426.1022	1447.1497	1480.5571	1480.8966	1502.1318	1502.8173	1553.5601	1643.1077	3009.6793	3011.4957	3051.6669	3052.0116	3120.5438	3120.6026	3233.9243	3249.3772	3667.3246
CC1=CC=C(C)N1	Cc1ccc(C)[nH]1	
InChI=1S/C6H9N/c1-5-3-4-6(2)7-5/h3-4,7H,1-2H3	InChI=1S/C6H9N/c1-5-3-4-6(2)7-5/h3-4,7H,1-2H3
