12
gdb 2571	4.06461	2.46426	1.72698	2.0186	52.2	-0.2605	-0.052	0.2084	692.9629	0.088765	-360.502298	-360.495547	-360.494603	-360.533163	23.243	
O	-0.1749608067	 0.2989844042	 0.7521377681	-0.273554
C	 0.0816515701	 1.0786689941	-0.1358900314	 0.088096
C	 1.3004928291	 1.9445095207	-0.1038116044	 0.120298
C	 1.5380873721	 2.6818586659	 1.2019660291	-0.241914
N	 2.3731839586	 1.5649768287	 0.841196112	-0.330643
C	 1.7443860164	 2.5964025023	-1.3694854793	 0.112625
O	 1.0543460912	 2.688360071	-2.3537002371	-0.25605
H	-0.5568371242	 1.1934695608	-1.0296576993	 0.1266
H	 2.0106560559	 3.6597939571	 1.1625267956	 0.142207
H	 0.7668912816	 2.5537234458	 1.9567668859	 0.15148
H	 2.0419477518	 0.7281062732	 1.3247748436	 0.261142
H	 2.7783898941	 3.0009218963	-1.3239851627	 0.099712
115.3153	152.172	205.6896	278.9744	308.3024	355.7238	483.8365	676.8588	775.4634	796.9668	927.4584	975.237	1002.7713	1022.5947	1057.8552	1125.7436	1136.8954	1276.2956	1330.853	1337.6606	1415.992	1421.008	1496.4719	1797.5063	1820.1897	2909.5043	2988.2893	3109.5408	3206.0624	3456.2702
O=CC1(CN1)C=O	O=CC1(CN1)C=O	
InChI=1S/C4H5NO2/c6-2-4(3-7)1-5-4/h2-3,5H,1H2	InChI=1S/C4H5NO2/c6-2-4(3-7)1-5-4/h2-3,5H,1H2
