8
gdb 33	35.11615	4.66117	4.22354	1.7211	33.1	-0.2595	0.0277	0.2872	300.0993	0.060632	-191.810916	-191.806025	-191.805081	-191.837634	15.855	
O	-0.020131966	 1.4573813729	 0.0101019492	-0.407684
C	 0.0016847769	 0.0357997984	 0.0022473556	-0.207413
C	-1.3636669119	-0.4748110109	 0.0125505641	 0.329634
C	-2.4790283486	-0.9197020212	 0.0208245052	-0.448481
H	 0.8944691103	 1.7573655258	 0.0032736346	 0.291585
H	 0.5197902843	-0.3517541277	-0.8898030248	 0.119691
H	 0.5367045842	-0.3612766093	 0.8800089415	 0.119691
H	-3.4677350191	-1.307370088	 0.0281812045	 0.202977
218.0927	219.7587	330.7678	556.4818	611.0091	678.8788	913.6909	1030.3322	1066.2649	1247.0002	1254.5238	1457.8399	1502.7086	2247.1735	2967.0227	2986.5987	3505.3012	3820.8683
OCC#C	OCC#C	
InChI=1S/C3H4O/c1-2-3-4/h1,4H,3H2	InChI=1S/C3H4O/c1-2-3-4/h1,4H,3H2
