15
gdb 3248	5.95067	2.33797	2.117	1.8479	60.81	-0.2488	0.0873	0.3361	660.044	0.125282	-308.457113	-308.451203	-308.450259	-308.486567	23.262	
C	-0.0418898329	 1.506024896	-0.0472625088	-0.316875
C	 1.2756896401	 0.76215572	 0.0129651179	-0.331895
C	-0.0219144614	 0.0103153275	 0.0004640353	 0.375007
C	-0.5359399949	-0.9584162563	 1.0988338827	-0.342137
C	-0.9599582301	-1.9056523153	-0.0398649106	 0.041537
O	-1.8799474811	-1.1933096565	-0.8729353311	-0.245659
C	-0.4737930354	-0.9690670767	-1.0664360076	-0.063217
H	-0.3664446201	 2.0358809338	 0.8423487046	 0.116288
H	-0.3197759494	 1.9884781526	-0.9785405327	 0.117396
H	 1.8905915525	 0.7386094312	-0.8814978948	 0.11376
H	 1.8410109496	 0.7909088494	 0.9390300889	 0.113579
H	 0.2696032677	-1.3601816512	 1.71983509	 0.107395
H	-1.3545968398	-0.6060043476	 1.7315115093	 0.111269
H	-1.0199389193	-2.9875497102	-0.0399260564	 0.10365
H	-0.0730561954	-1.1382825366	-2.0598028668	 0.099903
147.9083	263.7313	291.4529	408.5395	493.4679	589.7327	770.7571	786.4008	836.437	856.354	863.234	893.2666	917.7986	955.2171	969.9059	998.1376	1036.9944	1055.3315	1072.0185	1079.9162	1160.9037	1186.3522	1199.7694	1225.1412	1233.2727	1275.5759	1368.9343	1398.4969	1466.5194	1471.2442	1507.3641	3057.1617	3114.3359	3122.7417	3129.8339	3176.3738	3193.5742	3201.2155	3217.0231
C1CC11CC2OC12	C1CC21C[C@H]1O[C@@H]21	
InChI=1S/C6H8O/c1-2-6(1)3-4-5(6)7-4/h4-5H,1-3H2	InChI=1S/C6H8O/c1-2-6(1)3-4-5(6)7-4/h4-5H,1-3H2/t4-,5-/m1/s1
