15
gdb 3410	3.80334	2.97055	2.31336	2.9688	55.97	-0.2485	0.0645	0.3131	630.3704	0.126008	-345.616264	-345.609982	-345.609038	-345.645962	24.79	
O	-0.2282312217	 1.4702580763	 0.0785231253	-0.428923
C	-0.1210017134	 0.0634514875	 0.0741286491	 0.096569
C	-0.4672563875	-0.7806157545	 1.2620709423	-0.112939
C	-1.5733622724	-0.1100910114	 2.0811743643	-0.275285
C	-2.4935593561	-0.1165537777	 0.8077500765	 0.154877
O	-3.0522149717	 1.0824502218	 0.3479307857	-0.440938
C	-1.3604559953	-0.7586693229	-0.0093448837	-0.129976
H	 0.4383742612	 1.8248920087	 0.6765953985	 0.291567
H	 0.7088574234	-0.3072305591	-0.5266292146	 0.095476
H	 0.1903251337	-1.5666622506	 1.6136648976	 0.088217
H	-1.9623324514	-0.735295786	 2.8873040309	 0.103889
H	-1.3386316223	 0.8805018966	 2.4813935553	 0.088792
H	-3.3245782215	-0.813326275	 0.9422501214	 0.090186
H	-2.3063636746	 1.6665387396	 0.1581144443	 0.290832
H	-1.4914347104	-1.5059710632	-0.783459603	 0.087655
180.4102	234.3987	300.1296	357.028	421.6773	497.5732	559.7404	643.1477	722.4731	749.1889	808.8738	849.4477	932.3502	967.9439	987.0701	1005.3196	1027.037	1059.3868	1089.4225	1119.5671	1156.697	1200.5489	1225.7714	1263.4876	1291.5532	1297.1086	1322.051	1350.4693	1441.9552	1465.7517	1486.7816	3057.731	3079.3066	3112.5271	3116.686	3174.5013	3186.5091	3764.7134	3804.6092
OC1C2CC(O)C12	O[C@H]1[C@H]2C[C@@H](O)[C@@H]12	
InChI=1S/C5H8O2/c6-3-1-2-4(3)5(2)7/h2-7H,1H2	InChI=1S/C5H8O2/c6-3-1-2-4(3)5(2)7/h2-7H,1H2/t2-,3+,4-,5-/m0/s1
