15
gdb 1207	8.14069	1.1784	1.04914	2.4369	63.54	-0.2473	-0.0161	0.2312	1073.3104	0.121438	-308.51129	-308.502787	-308.501843	-308.545532	28.854	
C	-0.0540338438	 1.5128793778	 0.0107579403	-0.474425
C	 0.0723768843	 0.0002456557	 0.0009499467	 0.377953
O	 1.1477265005	-0.554170431	-0.012023954	-0.287595
C	-1.2334110384	-0.7845645748	 0.0094163939	-0.292632
C	-1.0149993658	-2.3058176603	-0.0007546214	-0.353743
C	-2.2701056945	-3.0460951601	 0.0074152655	 0.28327
C	-3.3194772954	-3.632399769	 0.0143053114	-0.429953
H	 0.9372212054	 1.9673008636	 0.0040024728	 0.145302
H	-0.6225360479	 1.8543802704	-0.8615897458	 0.140413
H	-0.6059855996	 1.8444108619	 0.8974633734	 0.140432
H	-1.8184840435	-0.4844699106	 0.8881876856	 0.133249
H	-1.8352882807	-0.4752260356	-0.8546775732	 0.133231
H	-0.4200823049	-2.5782356987	-0.8794749944	 0.145621
H	-0.4032990151	-2.5874859301	 0.8634026643	 0.145624
H	-4.2363817806	-4.1674556091	 0.0202709749	 0.193252
25.1583	69.3431	115.9845	121.4643	242.7217	343.9424	361.4033	478.6071	508.9453	586.8971	619.9838	640.6348	738.9907	831.6045	918.7891	919.4944	990.9311	1060.4206	1078.1923	1177.1687	1185.6216	1296.7906	1300.7003	1378.3939	1386.3143	1448.2445	1464.6953	1469.0806	1477.4184	1810.2969	2239.9207	3029.824	3038.9931	3047.9673	3058.1212	3082.6148	3098.0508	3153.5273	3508.0008
CC(=O)CCC#C	CC(=O)CCC#C	
InChI=1S/C6H8O/c1-3-4-5-6(2)7/h1H,4-5H2,2H3	InChI=1S/C6H8O/c1-3-4-5-6(2)7/h1H,4-5H2,2H3
