13
gdb 4900	6.82987	1.26082	1.07147	6.0242	55.93	-0.2134	0.0291	0.2425	1011.7418	0.095448	-435.778358	-435.770755	-435.769811	-435.811271	26.418	
O	 0.0027889918	 1.4225735003	 0.0071406049	-0.406145
C	 0.0184666722	 0.010537303	 0.0017590549	-0.186789
C	-1.3968268507	-0.4546120075	 0.0125814821	 0.296561
C	-2.5454173182	 0.2317627755	 0.024007987	-0.096026
O	-3.6179251916	-0.6397997173	 0.0308670218	-0.208987
C	-3.1336706232	-1.9324776977	 0.0230110305	 0.486926
O	-3.8119914888	-2.9224892542	 0.0271295434	-0.402382
N	-1.7591113586	-1.8043134652	 0.0120764752	-0.439134
H	 0.9115259012	 1.7354948172	-0.0000918318	 0.299397
H	 0.5321686925	-0.3898557476	-0.8899379066	 0.108972
H	 0.547912768	-0.3964859622	 0.8811663421	 0.108894
H	-2.7592704218	 1.2840932066	 0.0286158918	 0.165214
H	-1.1510859428	-2.603909391	 0.0064225247	 0.273499
31.1422	148.4953	176.8228	213.9181	257.1617	386.2598	405.4562	546.6192	601.2676	678.3465	728.5686	761.4657	772.8296	927.5816	1007.3312	1052.5874	1089.0016	1103.7416	1172.5778	1224.5603	1230.9685	1240.9139	1332.2408	1415.1782	1489.5861	1519.1498	1721.4948	1897.7356	2943.6296	2958.6413	3321.7846	3694.299	3845.4711
OCC1=COC(=O)N1	OCc1coc(=O)[nH]1	
InChI=1S/C4H5NO3/c6-1-3-2-8-4(7)5-3/h2,6H,1H2,(H,5,7)	InChI=1S/C4H5NO3/c6-1-3-2-8-4(7)5-3/h2,6H,1H2,(H,5,7)
