17
gdb 4837	4.53463	1.40962	1.15401	1.7938	71.7	-0.2238	0.0126	0.2364	1073.6756	0.142397	-363.917048	-363.908929	-363.907985	-363.95018	28.895	
C	 0.3182435173	 1.4620056155	-0.1549568678	-0.378534
C	-0.0646624582	 0.0016006368	 0.1393528656	-0.286966
C	 0.5774527798	-0.5374638962	 1.3707894983	 0.380821
N	 0.0189159426	-0.9383459383	 2.4682079071	-0.303677
C	 1.0808434076	-1.3257733023	 3.2790665951	-0.198856
C	 2.2506355851	-1.1361910559	 2.6237056099	 0.324441
C	 3.6834682876	-1.3514410754	 2.9423632846	-0.495068
O	 1.9377101847	-0.6260288243	 1.3869661426	-0.211312
H	 1.3995040305	 1.5640059437	-0.2820631276	 0.130628
H	-0.1673251528	 1.8070874951	-1.0722222547	 0.117938
H	 0.0091301128	 2.1189763054	 0.663349177	 0.129202
H	-1.1441133864	-0.0947588308	 0.2779021702	 0.134651
H	 0.2126200003	-0.6270966559	-0.7159588548	 0.120192
H	 0.9245999883	-1.7124424688	 4.2739397791	 0.115976
H	 4.1509191952	-2.0550635555	 2.2442178593	 0.140317
H	 4.2523655814	-0.4159155553	 2.8957009166	 0.140016
H	 3.7784207644	-1.7584331276	 3.9516558796	 0.14023
46.6061	128.9709	151.6267	194.2155	241.1036	285.5212	376.0877	430.0913	613.2745	649.3465	701.6301	746.3649	795.0437	847.3829	956.5618	968.5625	994.7289	1037.167	1067.8508	1075.283	1090.9607	1157.0259	1226.0456	1248.7156	1289.5681	1343.793	1373.867	1409.3013	1419.946	1472.5852	1473.7282	1491.9457	1497.4698	1507.1537	1615.5718	1651.8077	3031.1544	3034.5576	3044.2307	3082.0856	3103.8577	3116.9205	3126.7657	3128.1248	3260.4446
CCC1=NC=C(C)O1	CCc1ncc(C)o1	
InChI=1S/C6H9NO/c1-3-6-7-4-5(2)8-6/h4H,3H2,1-2H3	InChI=1S/C6H9NO/c1-3-6-7-4-5(2)8-6/h4H,3H2,1-2H3
