16
gdb 2778	4.22462	2.22864	1.57225	2.4244	61.72	-0.2618	0.0278	0.2896	798.2759	0.13719	-325.781815	-325.774633	-325.773689	-325.813203	25.871	
C	-0.031984132	 1.6058803841	-0.0442292709	-0.385131
C	 0.0719527501	 0.0802483687	 0.0452622555	-0.195921
C	 0.7089344967	-0.5387094041	-1.1990467577	-0.113265
C	 0.6936209483	-2.0772077312	-1.3455804655	-0.108839
O	-0.1080033048	-1.9623123274	-2.563274179	-0.253316
C	-0.1401608429	-0.5867664843	-2.4583953068	 0.442157
N	-0.7104837237	 0.2703773615	-3.1751855412	-0.543366
H	 0.9604345021	 2.0636562788	-0.1217515315	 0.113147
H	-0.6064709895	 1.9021028588	-0.9258386081	 0.156906
H	-0.5206192305	 2.0162641638	 0.8444282108	 0.11161
H	 0.6655419251	-0.2078826228	 0.9221919759	 0.099615
H	-0.925589724	-0.3537218218	 0.1883951245	 0.104678
H	 1.6937541972	-0.0986262293	-1.3841351676	 0.105522
H	 1.6494051945	-2.5649876629	-1.5507576003	 0.119951
H	 0.1461013701	-2.6214667697	-0.5709634635	 0.119018
H	-1.2195237468	-0.1670347323	-3.9454538946	 0.227234
95.8463	127.2944	178.3248	251.8547	295.7875	378.8577	467.1182	651.6901	739.8862	764.0582	826.2085	866.6204	918.0241	964.4647	973.7323	1002.6011	1026.8232	1092.8923	1114.3484	1153.5527	1182.4933	1229.2059	1243.9757	1287.3125	1325.5886	1371.3458	1384.2539	1415.468	1487.9808	1498.9273	1512.0813	1515.4415	1818.0343	3020.5143	3036.9562	3051.3219	3057.6121	3071.0591	3103.1676	3117.4949	3126.507	3472.641
CCC1COC1=N	CC[C@H]1CO[C]1[NH]	
InChI=1S/C5H9NO/c1-2-4-3-7-5(4)6/h4,6H,2-3H2,1H3	InChI=1S/C5H9NO/c1-2-4-3-7-5(4)6/h4,6H,2-3H2,1H3/t4-/m0/s1
