13
gdb 305	9.20563	2.65868	2.33419	2.8604	51.41	-0.2598	0.0305	0.2903	567.9978	0.108342	-286.498235	-286.492393	-286.491449	-286.527464	21.198	
C	-0.4067352767	 1.512552175	 0.0164951936	-0.399015
C	 0.0873288518	 0.0840895324	-0.0070154727	 0.14886
C	 0.8889183077	-0.4006120815	-1.2363948274	-0.371167
C	 2.0223043984	-0.5479826496	-0.2440111555	 0.439616
N	 3.2125825339	-0.9358488894	-0.3111987549	-0.53956
O	 1.2840351028	-0.0993900632	 0.8314857782	-0.263932
H	 0.3772874807	 2.2012400148	-0.3129537991	 0.129336
H	-1.269547294	 1.6233282768	-0.6488887805	 0.125915
H	-0.7152567066	 1.7977678326	 1.0265474059	 0.135235
H	-0.6879072901	-0.6139724751	 0.3235444076	 0.095668
H	 0.5577321102	-1.3323995491	-1.6970749928	 0.137296
H	 1.0571985891	 0.350023639	-2.0113134178	 0.13502
H	 3.6659315028	-0.8945017328	 0.6032889454	 0.226729
104.4951	232.7077	312.1354	417.3116	469.0014	500.3207	701.4267	814.4165	866.9028	880.1212	908.8051	962.756	1018.8602	1069.5758	1072.4251	1117.4707	1197.4143	1228.1725	1244.7721	1339.8542	1382.0987	1413.8667	1464.5318	1484.2786	1495.455	1825.4321	3038.1282	3061.9193	3085.3621	3111.4918	3118.9345	3140.9783	3475.1994
CC1CC(=N)O1	C[C@H]1C[C]([NH])O1	
InChI=1S/C4H7NO/c1-3-2-4(5)6-3/h3,5H,2H2,1H3	InChI=1S/C4H7NO/c1-3-2-4(5)6-3/h3,5H,2H2,1H3/t3-/m0/s1
