13
gdb 1401	7.24749	1.43396	1.24801	1.5976	61.8	-0.2606	0.0238	0.2843	904.3445	0.09829	-307.239887	-307.231905	-307.230961	-307.271909	28.479	
O	-0.0813725726	 1.4494095257	 0.0236457181	-0.403853
C	 0.0105677369	 0.0355788079	 0.0208586891	-0.049172
C	 0.6735698627	-0.5073850828	-1.2757560087	-0.368244
C	-0.0436957531	-0.1156721863	-2.4800884589	 0.311465
C	-0.6490958739	 0.1990047044	-3.4688670673	-0.440617
C	 0.7206758616	-0.4717446995	 1.1993884525	 0.297979
C	 1.3467210955	-0.8645074923	 2.1474743161	-0.442495
H	 0.8056049307	 1.8026769507	 0.1565292559	 0.286898
H	-1.0273982169	-0.3144152995	 0.0418444588	 0.133107
H	 1.7091947972	-0.1455571801	-1.3113399668	 0.130917
H	 0.7314744476	-1.6001096819	-1.2049586904	 0.14327
H	-1.1797636602	 0.48109635	-4.3441956578	 0.19736
H	 1.8776939244	-1.2149522964	 2.9982878794	 0.203384
73.5514	119.2999	183.12	226.3635	301.1974	344.2011	359.4602	490.2087	539.6949	570.3334	621.7828	646.2882	648.9692	676.2911	855.1978	938.3212	971.2444	1039.1525	1083.2694	1193.7776	1273.9542	1312.4144	1354.7367	1422.2273	1463.1457	2232.7609	2243.4795	3025.4606	3053.941	3069.3863	3501.7496	3506.7274	3802.7114
OC(CC#C)C#C	O[C@@H](CC#C)C#C	
InChI=1S/C6H6O/c1-3-5-6(7)4-2/h1-2,6-7H,5H2	InChI=1S/C6H6O/c1-3-5-6(7)4-2/h1-2,6-7H,5H2/t6-/m1/s1
