13
gdb 4152	3.60023	1.50057	1.14313	1.374	64.16	-0.26	-0.0117	0.2482	991.4555	0.09295	-398.484737	-398.476969	-398.476025	-398.517148	27.831	
O	-0.1553782932	 1.3958026211	 0.0833569614	-0.385419
N	 0.0357380109	 0.0113851608	 0.1893710001	-0.209371
C	-1.0475205271	-0.6093581869	 0.0209648095	 0.350108
C	-2.4991160894	-0.3275549042	-0.2603639887	-0.161821
O	-2.7744001646	-1.7502058301	-0.2242310231	-0.282368
C	-1.3825426193	-2.0939282635	 0.0497556308	-0.137266
C	-0.7765435778	-2.9454123945	-0.9582400317	 0.348317
C	-0.2718120107	-3.6538903007	-1.7866459293	-0.443686
H	 0.7345437291	 1.7382728219	 0.2225295231	 0.314355
H	-3.0355624487	 0.2276522679	 0.5187155683	 0.132583
H	-2.7150841625	 0.1191758349	-1.2386420038	 0.138013
H	-1.2851913264	-2.5500174298	 1.044363296	 0.129111
H	 0.1745851897	-4.2783538968	-2.5209457628	 0.207443
88.3214	109.3029	186.8201	220.8837	296.0275	366.5515	421.7404	481.5164	522.566	621.4353	632.1476	681.5179	743.2688	858.7537	931.4933	982.2183	1001.3804	1027.2398	1054.0236	1128.74	1170.3422	1233.3762	1314.8861	1337.4512	1414.151	1498.6871	1817.4665	2239.9905	3012.9026	3023.8607	3064.8098	3502.2234	3814.0992
ON=C1COC1C#C	ON=C1CO[C@H]1C#C	
InChI=1S/C5H5NO2/c1-2-5-4(6-7)3-8-5/h1,5,7H,3H2	InChI=1S/C5H5NO2/c1-2-5-4(6-7)3-8-5/h1,5,7H,3H2/t5-/m0/s1
