13
gdb 4207	5.33988	1.71559	1.52878	2.0959	60.88	-0.2343	0.0112	0.2455	803.2722	0.095097	-398.469113	-398.462913	-398.461968	-398.499369	24.153	
O	-0.1903060496	 1.3283508178	 0.0057167765	-0.401732
N	-0.0088927235	-0.0724683277	 0.0744270494	-0.295928
C	-1.1229171839	-0.6698792495	 0.09715099	 0.515865
C	-1.4819421505	-2.105040957	 0.001870016	-0.224614
C	-2.8945465859	-2.1522756737	 0.628422819	 0.102386
O	-3.1917546743	-0.8661140276	 1.17101221	-0.28844
C	-2.6019729319	-0.3106552759	-0.0430956932	-0.048858
C	-2.7676551513	-1.7029326967	-0.7749303705	-0.138976
H	 0.7190223292	 1.6449289661	 0.0049547282	 0.306652
H	-0.8501801045	-2.9706817089	-0.1332930984	 0.113493
H	-3.3211591681	-3.0358988231	 1.0840466276	 0.123916
H	-2.9672457986	 0.671674146	-0.3212125781	 0.114972
H	-3.145794757	-2.0170035598	-1.7364899665	 0.121263
141.744	200.1931	294.9595	386.6611	497.6882	552.326	671.9925	737.8662	748.4799	762.8477	782.8107	828.8585	876.8621	921.1275	948.1016	970.5806	1001.1123	1026.2478	1054.214	1086.2909	1131.2068	1143.7005	1188.7035	1236.1086	1282.4938	1358.5802	1414.7183	1802.5742	3195.3197	3210.3467	3226.8399	3237.8416	3823.4439
ON=C1C2C3OC1C23	ON=C1[C@H]2[C@H]3O[C@@H]1[C@@H]23	
InChI=1S/C5H5NO2/c7-6-3-1-2-4(1)8-5(2)3/h1-2,4-5,7H	InChI=1S/C5H5NO2/c7-6-3-1-2-4(1)8-5(2)3/h1-2,4-5,7H/t1-,2-,4+,5+/m0/s1
