16
gdb 648	5.27135	4.42599	3.97117	0.047	59.48	-0.2957	0.0922	0.3879	471.6447	0.146796	-234.491176	-234.486445	-234.485501	-234.518869	19.641	
C	-0.0457750484	 1.5756205932	-0.0446462537	-0.212329
C	 1.5009567436	 1.403788825	 0.0012182398	-0.000993
C	 1.2276685844	 0.184309961	 0.9297615691	-0.212328
C	-0.0170908321	 0.0198927342	 0.0091389544	-0.000993
C	 0.6299001907	-0.3357694574	-1.3442413658	-0.201281
C	 1.7877055708	 0.7197191783	-1.3502812126	-0.20128
H	-0.446727065	 2.0206705374	 0.8691024179	 0.092271
H	-0.4879078455	 2.0555815371	-0.9237657308	 0.082889
H	 2.1622524169	 2.218164264	 0.2997851007	 0.054267
H	 1.9651642526	-0.6245427213	 0.9532644288	 0.082889
H	 0.9620208909	 0.4815324693	 1.9470415147	 0.092271
H	-0.8872785313	-0.5618808074	 0.315691866	 0.054267
H	 0.9986296085	-1.365459	-1.3705766767	 0.092587
H	-0.0618091386	-0.2068659775	-2.1819988238	 0.092587
H	 1.7183848972	 1.4160106888	-2.19128577	 0.092587
H	 2.7788254452	 0.2574188553	-1.379864958	 0.092587
303.2429	428.3666	495.925	642.0587	827.9343	830.6094	831.7138	847.4857	855.2489	909.7023	945.3868	969.5478	970.6685	971.4985	1035.066	1078.5329	1078.6771	1100.5113	1146.5732	1151.363	1219.6437	1238.0683	1243.3921	1258.6398	1286.0768	1289.1373	1322.2198	1340.5397	1486.7247	1494.3445	1501.2785	1529.2638	3042.4601	3046.0259	3047.0154	3056.1582	3082.0187	3100.2938	3103.7962	3105.5843	3107.7676	3115.5536
C1C2CC1CC2	C1[C@H]2C[C@@H]1CC2	
InChI=1S/C6H10/c1-2-6-3-5(1)4-6/h5-6H,1-4H2	InChI=1S/C6H10/c1-2-6-3-5(1)4-6/h5-6H,1-4H2/t5-,6+
