13
gdb 609	6.88653	2.7336	2.31906	3.6028	51.56	-0.2505	0.0039	0.2544	574.3964	0.10755	-286.48657	-286.480311	-286.479366	-286.516357	21.744	
C	 0.3009180223	 1.4156054617	 0.1162416845	-0.411747
C	-0.0131907667	-0.0472089344	-0.0931616475	 0.010664
C	 0.7252427458	-0.8536108557	-1.1270261901	-0.239786
N	 0.9434254407	-1.0772012582	 0.2824543237	-0.060458
C	 2.1515662119	-0.895581308	 0.9274934681	 0.138231
O	 3.2298277922	-1.2013819928	 0.4785322217	-0.290315
H	 1.3477668473	 1.6337402372	-0.1172615738	 0.136144
H	-0.3299802593	 2.031858965	-0.5323947017	 0.133139
H	 0.1101919368	 1.7203506462	 1.1503413502	 0.132313
H	-1.0479703478	-0.3250865448	 0.1024587156	 0.10468
H	 0.2144557985	-1.6477916153	-1.6643074171	 0.128546
H	 1.5281068219	-0.3655855551	-1.6745709822	 0.136437
H	 2.0119288766	-0.4997369357	 1.9519977284	 0.082152
110.813	192.0462	243.8639	262.0578	393.9251	451.9129	620.3506	770.5588	877.3134	915.1504	975.9994	1036.8942	1047.9347	1111.8424	1128.7484	1157.3095	1158.9712	1196.2132	1377.013	1407.6973	1418.2387	1432.2404	1484.6242	1500.2609	1513.8902	1797.4926	2948.1754	3036.1567	3102.5632	3105.5379	3109.8775	3125.1226	3198.296
CC1CN1C=O	C[C@H]1CN1C=O	
InChI=1S/C4H7NO/c1-4-2-5(4)3-6/h3-4H,2H2,1H3	InChI=1S/C4H7NO/c1-4-2-5(4)3-6/h3-4H,2H2,1H3/t4-,5?/m0/s1
