12
gdb 235	7.67676	2.29575	1.87888	2.2729	51.94	-0.246	-0.0185	0.2275	636.8813	0.093109	-269.219315	-269.212283	-269.211339	-269.250569	23.951	
C	 0.8785032086	 0.6283578989	 0.1082340813	-0.474317
C	-0.5240120416	 0.0638556889	 0.1292536183	 0.390496
O	-1.3922158219	 0.4831739357	 0.8532742243	-0.284588
C	-0.8461575478	-1.072188161	-0.8682077572	-0.438121
C	 0.2344556057	-2.0103830399	-1.1286507801	 0.298193
C	 1.1316612177	-2.7845130816	-1.329511573	-0.452549
H	 1.5885242476	-0.1357159452	 0.4406015424	 0.159023
H	 1.1699952915	 0.897974131	-0.9128454856	 0.141555
H	 0.9339126806	 1.4999477234	 0.7606868067	 0.142291
H	-1.7389636969	-1.5823002866	-0.4942755139	 0.158721
H	-1.1404385195	-0.5780561034	-1.8062674924	 0.156158
H	 1.9198303061	-3.4728749002	-1.5103988209	 0.203137
41.3768	132.0059	157.1987	331.6995	345.0247	451.8007	492.7317	560.913	624.7233	648.3275	762.6645	840.0426	975.5426	1011.2826	1050.4842	1192.7075	1229.8699	1292.7901	1383.8517	1441.1468	1458.2156	1471.3062	1824.6366	2238.8032	3010.1085	3044.1807	3086.6993	3106.4956	3158.6064	3504.9259
CC(=O)CC#C	CC(=O)CC#C	
InChI=1S/C5H6O/c1-3-4-5(2)6/h1H,4H2,2H3	InChI=1S/C5H6O/c1-3-4-5(2)6/h1H,4H2,2H3
