14
gdb 4516	3.72132	1.71506	1.18065	0.5265	60.51	-0.1588	0.0619	0.2208	942.9464	0.107097	-415.872417	-415.864174	-415.86323	-415.904386	30.5	
N	 0.0464350912	 1.4509522576	-0.1421471441	-0.618052
C	 0.0429775986	 0.0413886791	-0.0636307562	 0.195659
C	-1.0601746544	-0.7648300173	-0.0145964741	 0.219291
O	-2.3874756724	-0.4541783182	 0.0973353794	-0.442785
N	-0.6338514491	-2.0952818674	-0.0744849351	-0.348699
C	 0.7283609183	-2.1069387925	-0.1125368827	 0.389047
O	 1.3470023737	-3.3172109807	-0.1253964212	-0.438089
C	 1.1965506883	-0.8163700617	-0.1289334872	-0.377707
H	 0.7703970142	 1.8537543756	 0.442377028	 0.23672
H	-0.8456863205	 1.8221012579	 0.1662337211	 0.237889
H	-2.7666699186	-0.3434758446	-0.7836533466	 0.298341
H	-1.2108138683	-2.894972347	 0.1200791287	 0.262821
H	 2.2968321838	-3.1662397592	-0.1230723947	 0.304718
H	 2.2269849651	-0.5057371316	-0.2099711953	 0.080846
185.6984	196.1811	209.3955	247.988	253.0317	261.9955	313.604	328.775	403.8174	528.4438	601.8883	634.7334	657.707	666.1379	703.7569	815.7267	849.4879	1035.6404	1067.7854	1166.7908	1189.8616	1220.106	1240.954	1281.7144	1366.9421	1485.5212	1540.1794	1606.0219	1646.5512	1697.0099	3241.8481	3506.5451	3592.5618	3685.1234	3732.096	3848.7422
NC1=C(O)NC(O)=C1	Nc1c(O)[nH]c(O)c1	
InChI=1S/C4H6N2O2/c5-2-1-3(7)6-4(2)8/h1,6-8H,5H2	InChI=1S/C4H6N2O2/c5-2-1-3(7)6-4(2)8/h1,6-8H,5H2
