15
gdb 1763	4.87968	1.89158	1.73055	1.0721	64.37	-0.2389	0.0363	0.2753	783.4888	0.122415	-308.468407	-308.460624	-308.45968	-308.499657	29.013	
C	-0.0364185236	 1.5361775324	 0.0450364348	-0.405606
C	 0.0314589617	 0.0261077638	 0.0265944003	-0.031873
C	 1.3351995312	-0.6930674396	-0.2206787397	-0.344288
C	 0.6970667926	-0.7247197121	 1.1628036751	 0.202569
O	 1.2619733279	 0.0876269487	 2.1583189858	-0.447325
C	 0.1185432402	-1.9567217403	 1.6342301302	 0.30637
C	-0.3343346135	-2.9926382913	 2.0460057806	-0.47769
H	 0.8456191871	 1.9625254335	 0.5264822705	 0.134404
H	-0.0989719221	 1.9283227584	-0.9757412174	 0.11567
H	-0.9173910885	 1.8837401056	 0.5943857179	 0.123594
H	-0.8511991721	-0.4670025259	-0.3693968837	 0.101859
H	 1.3392874453	-1.6026405596	-0.8099295326	 0.121208
H	 2.2291138084	-0.0824568717	-0.2978172416	 0.117677
H	 1.9866555198	-0.4046913429	 2.5596330051	 0.287732
H	-0.7485751145	-3.900301799	 2.4093738046	 0.195698
138.2596	160.3662	181.501	248.6848	296.1105	318.6965	416.7092	464.0048	547.3507	568.4817	588.011	674.7507	684.8332	788.7429	885.4758	906.8169	934.0973	1020.1958	1048.1717	1084.9051	1135.3241	1191.2924	1237.1818	1261.1534	1339.2106	1404.6571	1422.3691	1474.5197	1493.0405	1502.8058	2229.6852	3038.5057	3097.1176	3130.2426	3132.8514	3158.2527	3226.7412	3501.8512	3801.005
CC1CC1(O)C#C	C[C@H]1C[C@]1(O)C#C	
InChI=1S/C6H8O/c1-3-6(7)4-5(6)2/h1,5,7H,4H2,2H3	InChI=1S/C6H8O/c1-3-6(7)4-5(6)2/h1,5,7H,4H2,2H3/t5-,6+/m0/s1
