17
gdb 4535	3.69711	1.67832	1.17159	1.7883	72.76	-0.1822	0.0504	0.2325	1020.8933	0.141524	-363.896021	-363.887236	-363.886292	-363.929406	31.243	
C	-0.0536999256	 1.4633470467	 0.0081840203	-0.331141
N	-0.0610574324	 0.0188585302	 0.0129319244	 0.022183
C	-0.0655371683	-0.7823091624	-1.095378257	-0.176055
C	 0.0459327559	-2.1011430606	-0.7027464984	 0.141362
C	 0.0577918317	-3.3218475935	-1.5712251783	-0.528769
C	 0.128784172	-2.0769690467	 0.7204520889	 0.221103
O	 0.2378967192	-3.1525846679	 1.5576813092	-0.449528
C	 0.0659051849	-0.7688482221	 1.1400003033	-0.189023
H	 0.9540246619	 1.8700327832	 0.1592793328	 0.133732
H	-0.4327935878	 1.8224176711	-0.9511947953	 0.136203
H	-0.7042333241	 1.8478316775	 0.7996012802	 0.136873
H	-0.1473432062	-0.3556415068	-2.0833749031	 0.110568
H	 0.9814041981	-3.9055910896	-1.4570251758	 0.119744
H	-0.7799056229	-3.9982547473	-1.3527241664	 0.120027
H	-0.0188894756	-3.0505523216	-2.627815684	 0.126793
H	 0.2571145175	-3.9500172191	 1.0207003016	 0.293694
H	 0.0964833416	-0.3425281311	 2.1285214576	 0.112234
73.5594	103.6824	150.6303	192.0197	231.954	236.6804	290.8782	334.7324	498.1452	598.3874	607.2104	617.8187	626.3315	700.4927	737.6253	806.5175	998.8513	1027.4976	1062.2637	1090.8361	1146.0691	1153.6482	1206.473	1213.0497	1280.7038	1394.8244	1415.5391	1439.9223	1446.324	1468.3796	1484.8731	1485.692	1504.6714	1521.4043	1583.8843	1652.4905	3002.7815	3020.5981	3041.6635	3084.0711	3103.6157	3126.7998	3247.0991	3272.5495	3838.6441
CN1C=C(C)C(O)=C1	Cn1cc(C)c(O)c1	
InChI=1S/C6H9NO/c1-5-3-7(2)4-6(5)8/h3-4,8H,1-2H3	InChI=1S/C6H9NO/c1-5-3-7(2)4-6(5)8/h3-4,8H,1-2H3
