14
gdb 4192	5.21683	1.62558	1.33715	1.036	69.44	-0.2131	-0.0352	0.1778	879.0062	0.108369	-378.659133	-378.65264	-378.651695	-378.689602	25.224	
O	-0.0935762078	 1.3371899117	 0.0441239504	-0.392079
N	 0.0425945948	-0.0611336633	 0.0113982981	-0.262071
C	-1.1025535159	-0.6320615015	-0.0343040574	 0.407222
C	-2.4622724555	-0.0905509245	-0.0304589064	-0.192546
C	-3.320561142	-1.1233222284	 0.0172813587	-0.043443
N	-2.7008873516	-2.4054356483	 0.1117425965	-0.10881
C	-2.0062155127	-2.7715810471	-1.145337116	-0.236674
C	-1.2551387268	-2.1188992392	-0.0283634172	-0.112669
H	 0.8227481473	 1.6283051294	 0.0943231256	 0.307433
H	-2.7042618303	 0.9597771822	-0.0733313097	 0.128408
H	-4.4026870905	-1.0918573658	-0.0098104507	 0.124348
H	-1.8772815229	-3.8372868797	-1.3075715737	 0.130902
H	-2.2339159934	-2.1797958512	-2.0269128465	 0.130635
H	-0.5745206227	-2.7182517844	 0.5653237684	 0.119343
148.6171	229.9561	264.6776	366.3012	406.4867	453.4475	492.8904	695.2861	706.9659	758.2045	796.9625	834.847	858.2454	890.3931	943.2002	977.3414	1015.2408	1018.5602	1064.7058	1104.4466	1131.5998	1162.1378	1236.7408	1250.9435	1335.0905	1357.4217	1416.2506	1491.3937	1613.0228	1724.1534	3118.5112	3182.56	3215.2958	3216.6268	3267.1573	3822.8937
ON=C1C=CN2CC12	ON=C1C=CN2C[C@@H]12	
InChI=1S/C5H6N2O/c8-6-4-1-2-7-3-5(4)7/h1-2,5,8H,3H2	InChI=1S/C5H6N2O/c8-6-4-1-2-7-3-5(4)7/h1-2,5,8H,3H2/t5-,7?/m0/s1
