11
gdb 155	13.91383	3.41925	3.06432	1.7822	38.7	-0.2641	0.0777	0.3418	424.287	0.090736	-268.248806	-268.243491	-268.242547	-268.277228	18.033	
O	 0.1016120415	 1.3183485284	 0.249826405	-0.417496
C	 0.065577787	-0.016445706	-0.2227958214	-0.074521
C	-1.3417838251	-0.5556321339	-0.2434382662	 0.071229
C	-1.6519831288	-1.9361664259	 0.1430348586	-0.175311
O	-1.8820427052	-0.8590319527	 1.0523646458	-0.240846
H	-0.2997842252	 1.3123358697	 1.1263046417	 0.29345
H	 0.4782096418	 0.0041471852	-1.2374778982	 0.113405
H	 0.6968646172	-0.6815174154	 0.3868694731	 0.091453
H	-2.0365002346	-0.0265904302	-0.8967491212	 0.10235
H	-2.5466832563	-2.4167562584	-0.2494616087	 0.119752
H	-0.8442285623	-2.6140506107	 0.4164180215	 0.116535
92.8463	242.7899	373.9285	426.7768	514.5581	786.546	863.1315	942.6686	960.5449	1073.4402	1092.7637	1132.5653	1161.2805	1169.1176	1234.3417	1288.3075	1357.6287	1412.5979	1453.6832	1489.8522	1529.4329	2986.9636	3072.0837	3085.2867	3113.1627	3171.7926	3800.393
OCC1CO1	OC[C@H]1CO1	
InChI=1S/C3H6O2/c4-1-3-2-5-3/h3-4H,1-2H2	InChI=1S/C3H6O2/c4-1-3-2-5-3/h3-4H,1-2H2/t3-/m0/s1
