13
gdb 4613	5.75454	1.60075	1.25238	1.3005	67.74	-0.1886	-0.0591	0.1295	889.0902	0.097897	-394.811312	-394.804785	-394.803841	-394.841847	25.285	
O	-0.0044900839	 1.376924067	 0.008173867	-0.435171
C	-0.0203115675	 0.0181615201	 0.0012068539	 0.377877
C	-1.1863829892	-0.6779752194	 0.0042462257	-0.084181
N	-1.1333177973	-2.0473013917	-0.0031936699	-0.312877
C	 0.0455760904	-2.7846599231	-0.0137443505	 0.346111
N	-0.0128981083	-4.0699289844	-0.0200818813	-0.569053
C	 1.2217093935	-1.9133073754	-0.01592896	-0.072325
N	 1.1878441365	-0.6174798424	-0.0089958489	-0.299296
H	 0.9269593525	 1.6305806422	 0.0042609602	 0.298956
H	-2.1617523985	-0.2127999634	 0.0122378554	 0.144426
H	-1.9850699276	-2.5892599908	-0.0011321157	 0.270195
H	 0.9254152356	-4.4646756319	-0.0274923514	 0.211536
H	 2.1968264439	-2.3970110967	-0.0240049746	 0.123803
106.7253	314.0991	346.2466	368.6214	401.7098	440.4584	506.3616	512.2383	646.1644	661.9872	751.7342	763.8319	811.6125	841.0029	847.8259	933.1224	990.1719	1088.1671	1186.7182	1218.7612	1294.5937	1359.2899	1400.6489	1423.4576	1487.9826	1563.9903	1681.7327	1715.9933	3147.4604	3236.957	3504.6428	3620.7623	3796.6215
OC1=CNC(=N)C=N1	OC1=NC=C(NC1)[NH]	
InChI=1S/C4H5N3O/c5-3-1-7-4(8)2-6-3/h1-2H,(H2,5,6)(H,7,8)	InChI=1S/C4H6N3O/c5-3-1-7-4(8)2-6-3/h1,5-6H,2H2,(H,7,8)
