11
gdb 985	3.74627	3.5992	1.83563	1.6377	48.07	-0.1804	0.0395	0.2198	620.4427	0.0793	-376.599676	-376.593189	-376.592245	-376.629756	23.364	
O	 0.0668226242	 1.3831498918	 0.2549093567	-0.445384
C	 0.0626195854	 0.0433494298	 0.0333072141	 0.289784
C	 0.1175308087	-0.747764422	-1.0816619582	 0.217538
O	 0.1992826329	-0.3059839112	-2.3673895245	-0.458714
N	 0.08016887	-2.0686669472	-0.7407292454	-0.328097
C	 0.0028364157	-2.0950787468	 0.5736781051	-0.003775
N	-0.0110095484	-0.8316962575	 1.0936323971	-0.292371
H	 0.1290938633	 1.8170597174	-0.6028464293	 0.315374
H	 0.2183705746	-1.0927776081	-2.9239308651	 0.301341
H	-0.0454207596	-2.9771264557	 1.1914716191	 0.131311
H	-0.0631113067	-0.5639943505	 2.0619938304	 0.272992
159.2204	231.8607	257.7034	279.9113	335.8545	461.4003	486.2309	650.2988	656.6359	698.6586	726.8338	778.3804	951.8296	1088.4555	1120.4086	1158.3095	1287.4623	1312.772	1374.334	1424.4207	1509.4632	1548.9764	1720.9849	3268.3972	3670.2984	3818.3908	3831.3603
OC1=C(O)N=CN1	Oc1c(O)nc[nH]1	
InChI=1S/C3H4N2O2/c6-2-3(7)5-1-4-2/h1,6-7H,(H,4,5)	InChI=1S/C3H4N2O2/c6-2-3(7)5-1-4-2/h1,6-7H,(H,4,5)
