18
gdb 4544	3.81245	1.65005	1.17071	1.8613	76.89	-0.1664	0.0536	0.22	1035.0295	0.154227	-344.018789	-344.009961	-344.009017	-344.051978	32.069	
C	 0.0634905396	 1.4264000045	 0.0182795173	-0.336427
N	-0.0384795116	-0.0144036267	 0.0213097157	-0.036411
C	-0.0268441484	-0.8011143637	-1.1207752282	-0.19089
C	-0.0212211145	-2.1219409444	-0.7325969813	 0.242491
N	-0.1101996452	-3.2597191931	-1.5624436487	-0.605199
C	-0.0127188751	-2.1340457276	 0.6914464525	-0.309336
C	-0.0160511081	-0.8247709665	 1.1292841295	 0.317532
C	 0.0019558569	-0.2860993893	 2.5222620855	-0.503452
H	 1.1008519649	 1.7718209006	 0.121086578	 0.128264
H	-0.3355919849	 1.8136524689	-0.9221304817	 0.136441
H	-0.5225578445	 1.8535648621	 0.8362735189	 0.135557
H	-0.0397017119	-0.3500135171	-2.1002673957	 0.09458
H	 0.2149127657	-3.0725217199	-2.5029320156	 0.233033
H	 0.4230019543	-4.0367250119	-1.1914784714	 0.235946
H	-0.0287836127	-3.0081107663	 1.3262592206	 0.078392
H	 0.8902187055	 0.3248118622	 2.7290545037	 0.122226
H	-0.8751694248	 0.3352392534	 2.7450098382	 0.124606
H	 0.0022583546	-1.1158842454	 3.2327586828	 0.132646
73.9066	147.9134	152.8484	174.1774	209.6298	276.1494	289.6531	326.2553	481.7522	589.9631	609.1462	634.5562	636.4001	660.4474	751.3439	789.7799	813.9174	1000.1228	1013.1043	1059.7637	1074.7903	1109.1528	1146.9164	1180.881	1196.6124	1261.1713	1378.5796	1417.0013	1429.4689	1463.3037	1477.1153	1481.5259	1493.047	1498.5548	1520.4551	1556.3571	1635.7086	1658.4434	3010.0839	3013.0233	3051.8299	3087.0917	3119.8099	3126.0317	3233.2272	3252.2629	3523.7533	3610.7322
CN1C=C(N)C=C1C	Cn1cc(N)cc1C	
InChI=1S/C6H10N2/c1-5-3-6(7)4-8(5)2/h3-4H,7H2,1-2H3	InChI=1S/C6H10N2/c1-5-3-6(7)4-8(5)2/h3-4H,7H2,1-2H3
