17
gdb 3444	4.42189	2.70728	2.02436	1.8105	62.96	-0.2549	0.0908	0.3457	695.0225	0.14981	-309.721434	-309.715012	-309.714068	-309.75144	24.921	
C	 0.020982597	 1.5592528672	 0.0342683681	-0.402056
C	 0.0313346029	 0.0296456074	 0.0131416713	 0.012232
C	 0.7860214971	-0.5773767219	-1.2007662851	-0.222592
C	 1.3281262795	-1.9486355476	-0.7307433207	-0.244109
C	 1.5038505153	-1.7702409051	 0.7644979906	 0.053349
O	 2.1640764712	-0.5459294474	 1.1239702506	-0.265285
C	 0.7305054533	-0.6049836658	 1.2046834747	 0.050174
H	 1.0435350598	 1.9440779658	 0.1031915975	 0.130532
H	-0.4342916682	 1.9643402908	-0.8753830497	 0.112635
H	-0.5440643483	 1.9447768321	 0.8896451473	 0.110198
H	-1.005411093	-0.3372167074	 0.0190113261	 0.071043
H	 0.1477082829	-0.6583993874	-2.0841735719	 0.095482
H	 1.6229307863	 0.0756396788	-1.4616541329	 0.115128
H	 0.6003119944	-2.7511685151	-0.9050081612	 0.100689
H	 2.2551693266	-2.2324438059	-1.2386751329	 0.107577
H	 1.7158952572	-2.6178541565	 1.4118270586	 0.089012
H	 0.318718496	-0.5110149821	 2.2074989195	 0.085993
135.7452	226.2951	250.3401	322.9161	385.6461	511.5883	615.6253	665.6273	812.8889	831.9643	837.3438	875.0253	918.615	938.5937	978.1606	995.6269	1030.0635	1061.3048	1094.2472	1136.9146	1144.0508	1202.5934	1225.7387	1261.3218	1308.0267	1320.6687	1330.4091	1337.999	1376.7851	1407.192	1439.266	1480.7137	1492.7468	1497.7158	1502.943	3001.9759	3031.2004	3032.9377	3064.5164	3081.5992	3097.2188	3106.0127	3111.3709	3131.814	3147.4521
CC1CCC2OC12	C[C@H]1CC[C@H]2O[C@@H]12	
InChI=1S/C6H10O/c1-4-2-3-5-6(4)7-5/h4-6H,2-3H2,1H3	InChI=1S/C6H10O/c1-4-2-3-5-6(4)7-5/h4-6H,2-3H2,1H3/t4-,5+,6-/m0/s1
