10
gdb 741	9.57415	3.68605	2.7061	1.0701	43.3	-0.2916	-0.0228	0.2687	460.9254	0.074202	-301.357553	-301.352551	-301.351607	-301.385939	17.13	
C	-0.0142957189	 1.4874516323	 0.02936495	-0.484149
C	 0.0004584643	-0.0012792765	-0.006351792	 0.373755
N	-0.1040395728	-0.6788246605	-1.1200945611	-0.167813
O	-0.044395455	-2.0162681358	-0.6995477789	-0.152029
C	 0.0891583768	-1.9778284953	 0.6249315568	 0.111367
N	 0.1250331806	-0.7862920171	 1.126956203	-0.303286
H	 0.914622074	 1.863669167	 0.4679049384	 0.151932
H	-0.1260110384	 1.8890986789	-0.9784960152	 0.152435
H	-0.8395105847	 1.8417127633	 0.6539905359	 0.151919
H	 0.1533408742	-2.9246007763	 1.1413631632	 0.165869
133.5129	278.4698	343.8305	633.0747	682.5327	706.9243	906.227	906.9031	972.9122	990.9026	1045.3006	1072.1909	1151.2083	1298.8824	1356.188	1416.4157	1473.467	1475.252	1528.7638	1610.039	3053.9078	3114.916	3153.8569	3265.3689
CC1=NOC=N1	Cc1nocn1	
InChI=1S/C3H4N2O/c1-3-4-2-6-5-3/h2H,1H3	InChI=1S/C3H4N2O/c1-3-4-2-6-5-3/h2H,1H3
