13
gdb 1604	4.39295	2.05821	1.5127	3.1403	57.48	-0.2721	-0.073	0.1991	781.4962	0.09863	-344.433172	-344.425428	-344.424484	-344.465061	27.32	
C	-0.0446945361	 1.5613881913	-0.1604348688	-0.402583
C	 0.0902222542	 0.0481399034	 0.0613964971	 0.048881
O	 0.7739112361	-0.2229711921	 1.2527651634	-0.435632
C	-1.2741399422	-0.6412929543	 0.0911208618	 0.211828
O	-1.6207248108	-1.27113749	 1.0718760124	-0.315531
C	-2.1053146696	-0.5250581337	-1.0849846596	 0.283443
C	-2.7781479141	-0.4271788399	-2.0782280251	-0.401855
H	 0.9520364009	 2.0085241027	-0.1555910239	 0.138475
H	-0.5256002745	 1.7812295682	-1.1172256383	 0.126018
H	-0.6280477649	 2.0131485199	 0.6471460633	 0.130204
H	 0.6340101325	-0.3827098445	-0.7978721842	 0.099529
H	 0.1796637968	-0.785920617	 1.7747000162	 0.294935
H	-3.3842185983	-0.3487390442	-2.9484651443	 0.222287
66.9315	143.1915	195.9306	235.2051	297.906	341.5258	397.6918	440.3816	515.5971	588.3855	653.5468	703.8377	718.6071	790.6163	927.3712	1039.9849	1095.9036	1105.5342	1194.0453	1276.4362	1351.165	1397.6533	1429.215	1488.7188	1496.864	1749.2183	2214.6209	2953.1886	3047.752	3126.7829	3133.4952	3492.3373	3683.7128
CC(O)C(=O)C#C	C[C@@H](O)C(=O)C#C	
InChI=1S/C5H6O2/c1-3-5(7)4(2)6/h1,4,6H,2H3	InChI=1S/C5H6O2/c1-3-5(7)4(2)6/h1,4,6H,2H3/t4-/m1/s1
