14
gdb 4524	3.82074	1.68896	1.18168	1.6445	60.4	-0.1689	0.0582	0.227	947.8956	0.107158	-415.872429	-415.864136	-415.863191	-415.905043	30.216	
N	 0.1745591883	 1.4219633115	 0.0484361855	-0.610317
C	-0.016120585	 0.0202859223	 0.0106386127	 0.250486
C	-1.121319351	-0.8011574733	-0.0163066615	-0.323388
C	-0.6459622062	-2.1482706752	-0.0494296146	 0.153281
O	-1.3494004302	-3.3380338023	-0.0206028132	-0.46434
C	 0.7265510259	-2.1012831767	-0.036112873	 0.31265
O	 1.6565063879	-3.0894601665	-0.0409371362	-0.445903
N	 1.1068139819	-0.7921299919	 0.0057369134	-0.306141
H	-0.2066352146	 1.8791209968	-0.7734725559	 0.240203
H	-0.2704443814	 1.840833734	 0.8582549193	 0.241878
H	-2.1524118101	-0.4814305122	-0.0093478899	 0.085159
H	-1.915793782	-3.3808085397	-0.7980937603	 0.293984
H	 1.164905794	-3.9196755027	-0.0338504794	 0.307552
H	 2.0518818524	-0.4502722441	 0.0365688031	 0.264896
59.9344	189.1065	207.4621	247.5412	268.693	311.2637	317.463	364.4809	449.0761	528.1616	605.8623	638.1622	663.6674	670.2736	766.9659	795.0571	829.834	1021.5081	1136.6298	1164.3187	1187.9125	1207.9004	1248.7527	1284.2212	1396.3774	1426.9176	1552.4526	1570.788	1658.1581	1685.1141	3243.3617	3498.0721	3560.0981	3682.5934	3794.3301	3804.4901
NC1=CC(O)=C(O)N1	Nc1cc(O)c(O)[nH]1	
InChI=1S/C4H6N2O2/c5-3-1-2(7)4(8)6-3/h1,6-8H,5H2	InChI=1S/C4H6N2O2/c5-3-1-2(7)4(8)6-3/h1,6-8H,5H2
