13
gdb 4311	4.2302	1.89821	1.31097	3.1504	66.69	-0.2072	-0.0355	0.1717	860.3662	0.097713	-394.823764	-394.817104	-394.81616	-394.854418	25.564	
N	 0.0520424673	 1.3610211756	 0.1356371638	-0.564628
C	-0.0445095728	 0.0021215652	 0.0514942583	 0.386761
C	-1.2145566734	-0.6963930882	 0.0308457517	-0.247379
C	-1.2063437749	-2.1281731395	-0.0043423617	 0.388983
N	-2.2165032593	-2.8932574737	-0.0219459748	-0.552952
O	 0.1003929468	-2.7008204071	-0.0231785821	-0.221987
C	 1.1726377624	-1.9073250897	-0.0110072058	 0.146394
N	 1.1996044005	-0.6319011902	 0.0249387877	-0.334354
H	 0.948217936	 1.7535763558	-0.1020252446	 0.26569
H	-0.7573764359	 1.918791394	-0.0781897659	 0.263213
H	-2.1814435511	-0.2114782515	 0.0464773011	 0.106148
H	-1.9350999272	-3.8720144254	-0.0485017186	 0.219711
H	 2.0938759916	-2.4835588752	-0.037140569	 0.144399
146.6918	172.6404	340.4057	387.2255	434.263	444.6484	463.1789	535.1391	583.6951	679.4007	745.3542	759.1566	809.0751	840.4809	879.9461	950.5825	976.5663	1060.5729	1111.6415	1174.6441	1283.0311	1309.4956	1393.9209	1445.6756	1613.0833	1652.9625	1695.8772	1761.829	3180.2678	3220.082	3508.7629	3604.0929	3726.5806
NC1=CC(=N)OC=N1	N[C@@H]1C=C([NH])OC=N1	
InChI=1S/C4H5N3O/c5-3-1-4(6)8-2-7-3/h1-2,6H,5H2	InChI=1S/C4H6N3O/c5-3-1-4(6)8-2-7-3/h1-3,6H,5H2/t3-/m0/s1
