14
gdb 3534	7.39892	2.38097	2.30773	1.4202	57.36	-0.2329	0.0613	0.2943	607.5551	0.114416	-324.463541	-324.458053	-324.457109	-324.492468	21.637	
O	 0.0121089684	 1.4809071836	-0.1199785042	-0.440194
C	 0.0483785837	 0.0805459079	-0.0292473933	 0.123152
C	-0.001064635	-0.5776143233	 1.3590371345	-0.054117
C	-1.5108751303	-0.2490849081	 1.5748330653	-0.056068
C	-1.7680583109	-1.7269645498	 1.8423563709	-0.1831
N	-0.6992693417	-1.8281916334	 0.7543343453	-0.171933
C	-1.32154275	-0.5815598251	 0.0624138683	-0.024812
H	 0.911600161	 1.8134410237	-0.0422889078	 0.288234
H	 0.7461047016	-0.380456085	-0.7410573167	 0.08072
H	 0.7730168438	-0.695023622	 2.1204698374	 0.07794
H	-1.9510530814	 0.6476884268	 2.0173882009	 0.075653
H	-1.4496430281	-2.1451926797	 2.8032287464	 0.099764
H	-2.7329929931	-2.1496043162	 1.5425171565	 0.101006
H	-2.0941209279	-0.6989128595	-0.6990982936	 0.083755
211.9563	276.9184	315.6717	467.5031	558.7591	713.2721	802.6494	810.3391	846.8899	865.1902	914.2264	916.733	942.4111	1028.8446	1032.2519	1065.8953	1101.7096	1114.9869	1151.336	1155.6363	1169.1129	1192.3736	1214.4137	1257.2234	1270.7771	1295.2805	1323.3281	1436.8062	1520.0695	3022.2162	3033.4439	3075.9178	3091.5861	3094.305	3109.085	3823.5865
OC1C2C3CN2C13	O[C@H]1[C@H]2[C@@H]3CN2[C@H]13	
InChI=1S/C5H7NO/c7-5-3-2-1-6(3)4(2)5/h2-5,7H,1H2	InChI=1S/C5H7NO/c7-5-3-2-1-6(3)4(2)5/h2-5,7H,1H2/t2-,3+,4-,5-
