14
gdb 1055	7.08663	1.97225	1.59693	2.1981	60.33	-0.1958	0.0403	0.236	749.0718	0.115349	-324.605411	-324.598887	-324.597943	-324.636004	24.059	
O	 0.5303595385	 0.089112254	 0.9947201714	-0.426109
C	-0.1351163599	 0.2983954158	-0.2519762221	-0.203255
C	-1.5099865348	-0.2679341792	-0.1438521143	 0.326364
C	-2.7143797999	 0.1152280269	-0.6917541658	-0.242107
C	-3.6875688191	-0.8472812544	-0.3007889237	-0.140375
C	-3.048394509	-1.7826409049	 0.4798958458	-0.094213
N	-1.7258039916	-1.429180478	 0.5540141877	-0.266111
H	 1.4637652031	 0.284331959	 0.8688766515	 0.289771
H	-0.203022888	 1.3663440205	-0.5057879177	 0.105903
H	 0.4301645114	-0.1920929549	-1.0626707113	 0.098419
H	-2.8754071008	 0.9853161589	-1.3105149747	 0.085974
H	-4.7354565111	-0.8478948777	-0.558695239	 0.089928
H	-3.42138296	-2.6534062947	 0.9947371605	 0.111653
H	-1.0214867188	-1.8567063813	 1.1305711116	 0.264157
71.295	177.2479	263.893	305.7571	447.4064	539.601	631.6738	644.9146	709.4277	718.1647	791.4411	846.2681	898.473	973.6932	1021.6655	1044.7328	1057.3974	1111.8585	1144.1889	1218.6031	1235.4712	1266.9626	1303.631	1427.9679	1453.4483	1468.834	1504.7818	1516.2349	1617.4504	2948.9976	3006.2384	3237.7127	3250.6596	3269.9282	3679.849	3826.6616
OCC1=CC=CN1	OCc1ccc[nH]1	
InChI=1S/C5H7NO/c7-4-5-2-1-3-6-5/h1-3,6-7H,4H2	InChI=1S/C5H7NO/c7-4-5-2-1-3-6-5/h1-3,6-7H,4H2
