17
gdb 4818	5.1234	1.37525	1.10419	2.9219	72.66	-0.1762	0.041	0.2172	1080.0663	0.143709	-360.073751	-360.065539	-360.064595	-360.106537	29.414	
C	 0.0554825985	 1.3797229486	-0.1541085082	-0.321574
N	-0.0047190471	-0.0206804907	 0.2105691428	-0.367064
C	-1.2259001122	-0.6698512057	 0.1117293988	 0.324604
C	-2.4984156478	-0.1405963845	 0.0878913241	-0.226393
N	-3.346337514	-1.24114723	 0.037363731	 0.025249
C	-4.7905733632	-1.2084026986	 0.0024851804	-0.335922
C	-2.5544783027	-2.3405508552	 0.0224022883	 0.001096
N	-1.2724859925	-2.0420175788	 0.0644581477	-0.345023
H	 1.0899659386	 1.725500888	-0.0920846673	 0.121818
H	-0.3272191003	 1.590439433	-1.1669197568	 0.10469
H	-0.5330377673	 1.9749064598	 0.5541474732	 0.12568
H	 0.742874199	-0.588977401	-0.1611166872	 0.238378
H	-2.8783837304	 0.8657473952	 0.106971099	 0.112068
H	-5.150257336	-0.6605876714	-0.8751113932	 0.139353
H	-5.1682452265	-2.2316566998	-0.0480846446	 0.141958
H	-5.19576529	-0.7316289334	 0.9014187108	 0.14033
H	-2.967180306	-3.3381582257	-0.0220057186	 0.120751
96.4949	105.6552	149.0726	187.4775	204.2224	328.3518	358.479	481.3854	550.6009	615.4456	626.0551	656.4981	736.184	771.5401	805.4752	992.4508	1048.9024	1083.8777	1096.3035	1151.9149	1155.1104	1164.5893	1222.9067	1259.1647	1304.8103	1396.1399	1420.4232	1452.9296	1458.7172	1478.9983	1480.5668	1497.33	1519.6316	1532.2124	1557.3249	1632.1996	2962.2351	3031.0578	3050.7309	3086.8327	3115.9493	3132.1388	3241.3086	3283.0795	3597.9724
CNC1=CN(C)C=N1	CNc1cn(C)cn1	
InChI=1S/C5H9N3/c1-6-5-3-8(2)4-7-5/h3-4,6H,1-2H3	InChI=1S/C5H9N3/c1-6-5-3-8(2)4-7-5/h3-4,6H,1-2H3
