13
gdb 266	8.98436	2.12697	1.75865	2.4228	46.82	-0.2644	0.0591	0.3235	686.248	0.107556	-323.6788	-323.671741	-323.670797	-323.710041	24.01	
C	-0.1078360614	 1.4951901175	 0.0100100195	-0.391422
C	-0.0134299717	-0.0186957086	 0.0014267759	-0.030305
O	-1.3543798154	-0.5364449398	 0.0423098176	-0.259115
C	-1.447563919	-1.8882391359	 0.0437665138	 0.493873
N	-2.7601732578	-2.263434363	 0.1404482356	-0.562113
O	-0.5066008879	-2.6456127743	-0.0013264847	-0.398662
H	 0.8957601311	 1.9296390023	-0.0204555336	 0.122248
H	-0.6663529282	 1.857240439	-0.857978118	 0.126349
H	-0.6100313074	 1.8502978158	 0.9143997355	 0.128288
H	 0.4873263288	-0.3910618814	-0.8978816079	 0.119794
H	 0.5426470426	-0.3973400605	 0.864800766	 0.121299
H	-3.472025824	-1.5814362298	-0.059485891	 0.262528
H	-2.9589576897	-3.2261182614	-0.0707834488	 0.267238
46.8315	136.424	198.7615	258.6961	356.1587	372.3631	466.0593	518.2383	665.8146	783.5309	809.025	861.5691	994.292	1098.1259	1109.073	1145.4667	1185.6928	1291.0831	1343.5861	1405.9194	1430.3709	1485.6695	1497.8388	1524.5739	1612.2563	1833.4487	3044.8931	3050.0789	3087.1506	3119.6695	3123.9115	3612.9277	3742.2344
CCOC(N)=O	CCOC(=O)N	
InChI=1S/C3H7NO2/c1-2-6-3(4)5/h2H2,1H3,(H2,4,5)	InChI=1S/C3H7NO2/c1-2-6-3(4)5/h2H2,1H3,(H2,4,5)
