11
gdb 3414	5.19711	3.06274	2.15328	3.3525	51.37	-0.248	-0.075	0.1729	573.129	0.079159	-343.246371	-343.241154	-343.24021	-343.27528	19.642	
O	 0.0374245105	-0.0056125876	-0.0559792428	-0.310808
C	-0.007399493	 1.1975705773	 0.0024570333	 0.400868
C	-1.223010649	 2.0648159995	 0.0836489564	-0.191527
C	-0.879641481	 3.3571650214	 0.0082231336	-0.063787
C	 0.6156995492	 3.5076675943	-0.0556617282	-0.001003
O	 1.2668205572	 2.99178163	 1.1218651311	-0.241633
C	 1.1832817844	 2.1574333022	-0.0471868494	-0.088596
H	-2.2173029881	 1.6541342044	 0.2009707418	 0.130017
H	-1.5564758718	 4.2024064181	 0.0360103637	 0.130055
H	 1.0927601692	 4.3606310266	-0.5262565552	 0.115567
H	 2.1203146925	 1.861655044	-0.5071321243	 0.120847
173.4765	319.6099	437.4081	447.2899	619.9546	714.0063	755.9274	807.2909	840.9879	867.7427	871.7921	959.3735	989.944	1019.3202	1091.5963	1104.9864	1177.5247	1235.014	1293.3803	1357.373	1394.5077	1634.8532	1832.6726	3174.4511	3184.7648	3207.8087	3233.5895
O=C1C=CC2OC12	O=C1C=C[C@H]2O[C@@H]12	
InChI=1S/C5H4O2/c6-3-1-2-4-5(3)7-4/h1-2,4-5H	InChI=1S/C5H4O2/c6-3-1-2-4-5(3)7-4/h1-2,4-5H/t4-,5+/m1/s1
