12
gdb 2512	3.53516	2.15993	1.40852	2.8869	56.12	-0.2834	0.0066	0.29	803.836	0.088524	-323.343769	-323.336261	-323.335317	-323.375443	26.128	
O	 0.0847777415	 1.4040802957	-0.0168249872	-0.406751
C	 0.0551854239	 0.0025466011	-0.0422066114	-0.066501
C	-1.4082342798	-0.5487622295	-0.0021439542	-0.323947
C	-1.4362943688	-2.0045442585	-0.1048987543	 0.316434
C	-1.4062305412	-3.1999761587	-0.2063476818	-0.420013
C	-2.0616136437	-0.0685467429	 1.2250469912	 0.276947
N	-2.5210023541	 0.36011095	 2.1947161443	-0.32018
H	-0.1834857571	 1.701070465	 0.8605168419	 0.303367
H	 0.5017036463	-0.3143971534	-0.9876540475	 0.137223
H	 0.623857642	-0.4536730525	 0.778575144	 0.123347
H	-1.9411861557	-0.1022298995	-0.8514800891	 0.166485
H	-1.3961385333	-4.2588154967	-0.2935449458	 0.213589
111.491	131.336	149.153	211.3412	363.4672	373.8647	390.2342	488.3287	568.0971	581.1476	657.0094	676.932	815.0873	986.6168	1018.5905	1059.3826	1097.4433	1191.8223	1268.3079	1328.7008	1389.0317	1413.8072	1502.5306	2249.3487	2359.9611	3022.2297	3039.3229	3112.0656	3501.9234	3799.0877
OCC(C#C)C#N	OC[C@@H](C#C)C#N	
InChI=1S/C5H5NO/c1-2-5(3-6)4-7/h1,5,7H,4H2	InChI=1S/C5H5NO/c1-2-5(3-6)4-7/h1,5,7H,4H2/t5-/m0/s1
