19
gdb 2365	3.95916	1.9473	1.52128	1.3865	67.58	-0.2526	0.0793	0.3319	878.7042	0.170177	-310.90781	-310.899443	-310.898498	-310.940099	31.093	
C	 0.015156396	 1.4433360959	-0.2105271588	-0.387808
C	 0.0598556631	-0.0462956247	 0.1565262435	 0.037539
C	 0.7473562534	-0.2722937151	 1.511044274	-0.390865
C	-1.3364667965	-0.6458840385	 0.1591380825	 0.009594
C	-1.986879134	-1.1035953315	-1.1331565833	-0.344789
C	-1.5514011442	-2.1091272162	-0.0946482405	 0.08811
O	-0.4079770404	-2.8857754199	-0.3199540567	-0.417668
H	 1.0231410418	 1.8702290647	-0.2455472901	 0.106699
H	-0.4537762124	 1.5992081281	-1.1873643727	 0.110047
H	-0.5599044269	 2.013612351	 0.5291374935	 0.107059
H	 0.6440829888	-0.5744982938	-0.6054793784	 0.08019
H	 0.8219334367	-1.3402435403	 1.7334734593	 0.128957
H	 1.7579121691	 0.1501145243	 1.5150709397	 0.103867
H	 0.1856279715	 0.2067557828	 2.3223627074	 0.103568
H	-2.0048371885	-0.2015957162	 0.8946793418	 0.078678
H	-3.0464060949	-0.9327637874	-1.2915571155	 0.106844
H	-1.377825523	-1.0440780555	-2.0303048963	 0.110634
H	-2.3307031608	-2.6118444285	 0.4785369007	 0.08186
H	-0.6164305887	-3.5303693591	-1.0037550003	 0.287486
67.9274	153.1936	214.9041	232.6391	255.3666	293.1721	335.4654	361.0596	403.1353	484.4698	593.8337	749.5266	816.3066	847.2759	901.9827	927.2838	960.9813	983.6506	1003.5297	1030.0067	1062.3351	1128.6447	1148.7324	1175.8651	1187.4391	1216.3637	1236.916	1293.1268	1314.8083	1347.919	1394.8293	1403.6252	1418.498	1428.568	1486.5528	1489.0317	1491.9884	1504.069	1511.7626	3021.9379	3026.0404	3042.6798	3084.8958	3092.0333	3092.9428	3100.4544	3114.4857	3121.5366	3124.8814	3211.5453	3809.0441
CC(C)C1CC1O	CC(C)[C@H]1C[C@H]1O	
InChI=1S/C6H12O/c1-4(2)5-3-6(5)7/h4-7H,3H2,1-2H3	InChI=1S/C6H12O/c1-4(2)5-3-6(5)7/h4-7H,3H2,1-2H3/t5-,6-/m1/s1
