11
gdb 738	9.45338	3.55163	2.62373	0.5006	47.14	-0.2584	0.0012	0.2596	481.1012	0.087282	-281.482952	-281.47767	-281.476726	-281.511891	18.12	
C	-0.0255727446	 1.5017558635	-0.0104562117	-0.497836
C	 0.001563119	 0.0083213219	 0.026856999	 0.310919
N	-0.0776535497	-0.7294302375	-1.0847350483	-0.259213
N	-0.0203160251	-1.9768174503	-0.6330354717	-0.070962
N	 0.0894643174	-2.1301919047	 0.6781123409	-0.192377
C	 0.1054729669	-0.8735527594	 1.1217348737	-0.119099
H	 0.8880189201	 1.928433514	 0.4166389037	 0.135863
H	-0.1162802561	 1.8468082227	-1.0421686442	 0.145518
H	-0.869970495	 1.900096893	 0.5617502608	 0.135851
H	-0.0585868671	-2.7663049624	-1.25665502	 0.291338
H	 0.1883692541	-0.6606548108	 2.1759189177	 0.119997
70.6401	282.3732	339.4058	510.1899	677.5877	701.1567	723.9435	875.9974	987.8797	1001.6842	1033.8561	1069.5834	1165.8511	1202.2938	1246.8402	1359.97	1402.1049	1416.0059	1476.9057	1485.5718	1498.556	1573.2251	3041.0236	3093.9336	3136.7971	3265.8313	3673.2621
CC1=NNN=C1	Cc1n[nH]nc1	
InChI=1S/C3H5N3/c1-3-2-4-6-5-3/h2H,1H3,(H,4,5,6)	InChI=1S/C3H5N3/c1-3-2-4-6-5-3/h2H,1H3,(H,4,5,6)
