14
gdb 4811	6.60791	1.27951	1.08337	3.2586	60.29	-0.1914	0.0337	0.2251	1019.589	0.108278	-415.892022	-415.884421	-415.883477	-415.924232	27.587	
O	-0.0949010648	 1.3517566242	-0.2837429772	-0.429062
C	-0.0267503432	-0.0286781638	 0.0530763996	-0.18765
C	-1.422643214	-0.5634069953	 0.0386884672	 0.360881
N	-1.7750738813	-1.8372724743	 0.0385245967	-0.405671
C	-3.1411630987	-1.8256585927	 0.061422771	 0.335486
O	-3.8532441412	-2.9749868682	 0.0667434745	-0.439429
C	-3.6359993529	-0.5465066152	 0.0725492334	-0.213081
N	-2.50028733	 0.2506258117	 0.0646173564	-0.255418
H	 0.7544577101	 1.7540074947	-0.0839945231	 0.297665
H	 0.5852485461	-0.5994221475	-0.6599172288	 0.122929
H	 0.4189563778	-0.1708353756	 1.050333069	 0.115101
H	-3.2049599882	-3.6890466535	 0.0483931834	 0.29837
H	-4.6337023775	-0.1467508423	 0.0756382427	 0.126288
H	-2.4484605822	 1.2547733477	 0.0318368351	 0.273591
53.5602	176.8708	201.0283	237.7266	338.3369	367.781	372.2768	508.347	568.6263	642.9884	665.8531	690.6213	728.2628	748.5208	1008.814	1022.5473	1036.1949	1084.3102	1104.558	1172.3896	1209.1604	1231.7305	1299.4472	1319.2886	1414.4004	1450.9975	1502.881	1516.2719	1574.6327	1660.1193	2975.4225	3015.3454	3297.8731	3676.2083	3807.249	3847.7798
OCC1=NC(O)=CN1	OCc1nc(O)c[nH]1	
InChI=1S/C4H6N2O2/c7-2-3-5-1-4(8)6-3/h1,7-8H,2H2,(H,5,6)	InChI=1S/C4H6N2O2/c7-2-3-5-1-4(8)6-3/h1,7-8H,2H2,(H,5,6)
