17
gdb 3982	6.28496	0.83233	0.77557	0.7158	74.57	-0.2443	0.0082	0.2525	1428.3168	0.138695	-363.795555	-363.786012	-363.785068	-363.830534	33.577	
C	-0.0733322364	 1.523258872	-0.0203006219	-0.472496
C	-0.0164717544	 0.018282633	-0.0318997776	 0.351341
C	 0.0231827408	-0.7472902925	 1.2641466694	-0.26563
C	 1.3546668642	-0.540770218	 2.0314102319	-0.350792
C	 1.3723289277	-1.2334865022	 3.3130733363	 0.295463
C	 1.35804407	-1.8145188398	 4.3651611856	-0.437999
N	 0.0038438126	-0.6845643586	-1.1000965955	-0.16118
O	-0.0218069295	 0.1216622495	-2.2501891948	-0.399846
H	 0.8476860914	 1.9507433765	-0.4315879655	 0.147347
H	-0.8882105792	 1.8735550707	-0.6606616955	 0.150966
H	-0.2186805498	 1.9108016676	 0.990198863	 0.119367
H	-0.8040079452	-0.424399449	 1.9078334143	 0.117401
H	-0.1121155205	-1.8103879856	 1.0544204848	 0.129753
H	 2.1829186136	-0.8950360176	 1.4056874096	 0.141704
H	 1.5290188107	 0.5303347172	 2.1942297721	 0.132556
H	 1.3593703796	-2.324371933	 5.2963965269	 0.19549
H	-0.0304821454	-0.5339715702	-2.9553235833	 0.306558
59.6492	65.9991	87.8806	127.8783	201.156	293.7859	332.6121	359.2844	387.9482	421.2844	473.2806	554.9531	619.2763	640.8022	658.8665	772.492	824.5328	955.1942	975.7875	989.4883	1012.7992	1049.5806	1074.6146	1187.0797	1266.7863	1284.6441	1309.649	1363.7939	1399.39	1400.99	1470.1717	1476.1889	1484.3349	1487.191	1728.0719	2239.5629	3024.1285	3038.9182	3042.3582	3059.0444	3100.7897	3116.798	3131.6614	3507.4361	3821.7591
CC(CCC#C)=NO	CC(=NO)CCC#C	
InChI=1S/C6H9NO/c1-3-4-5-6(2)7-8/h1,8H,4-5H2,2H3	InChI=1S/C6H9NO/c1-3-4-5-6(2)7-8/h1,8H,4-5H2,2H3
