10
gdb 2560	3.78607	2.63246	1.72984	3.7991	54.23	-0.2923	-0.0305	0.2617	681.4227	0.064742	-322.115604	-322.109084	-322.10814	-322.145969	23.087	
C	 0.0212015974	-1.1753561881	-0.0293448397	-0.402023
C	 0.0047284436	 0.0239737571	 0.0161630611	 0.269773
C	-0.0325847978	 1.4624108159	 0.0705060946	 0.133462
C	 0.5384587973	 2.1973242032	 1.2312038681	-0.193935
O	 1.2235284405	 2.1552593848	-0.0084972169	-0.23587
C	-1.1179040674	 2.0902558632	-0.6674426617	 0.238704
N	-1.9885892286	 2.5856242466	-1.2423906143	-0.322416
H	 0.0392234399	-2.2370624426	-0.0737407691	 0.218076
H	 0.10606929	 3.1577423098	 1.5041122786	 0.148808
H	 0.9740320852	 1.6093633101	 2.0360217295	 0.145422
129.1852	203.362	224.5867	240.0942	474.0402	492.964	583.497	607.4482	632.1823	645.8161	689.7592	850.7045	897.7223	955.6576	1136.8158	1170.2366	1231.9369	1325.7488	1512.2913	2251.4217	2366.5004	3097.7489	3200.1182	3498.6975
C#CC1(CO1)C#N	C#C[C@]1(CO1)C#N	
InChI=1S/C5H3NO/c1-2-5(3-6)4-7-5/h1H,4H2	InChI=1S/C5H3NO/c1-2-5(3-6)4-7-5/h1H,4H2/t5-/m1/s1
