12
gdb 4992	3.35741	2.50878	1.43586	0.8211	60.41	-0.2288	-0.0367	0.1921	781.2638	0.086313	-414.723374	-414.717311	-414.716367	-414.753449	23.475	
O	 0.0992214948	 1.3697390759	 0.0412394485	-0.402472
C	 0.0764269765	 0.0255496374	 0.005580678	 0.35351
N	 0.0407729334	-0.5993828159	-1.1480879095	-0.329074
C	 0.0191987811	-1.9468093974	-1.1269141412	-0.040245
C	 0.0339879068	-2.6443568854	 0.062019317	-0.040245
N	 0.0705832891	-2.0051751703	 1.2480125037	-0.329074
C	 0.091657383	-0.6929251903	 1.2301841964	 0.35351
O	 0.1283871678	-0.0057048366	 2.3856130097	-0.402472
H	 0.0836987366	 1.663832156	-0.8807610416	 0.302093
H	-0.0102411801	-2.453228877	-2.0858347925	 0.116188
H	 0.016803819	-3.7287348539	 0.08819926	 0.116188
H	 0.1331582521	-0.6671250825	 3.0922370415	 0.302093
156.6941	305.0294	327.5154	454.5226	501.9766	519.6386	557.5859	576.7101	605.9653	607.0771	783.2076	809.5777	861.9713	920.4549	952.1354	1103.5432	1118.1	1194.6874	1271.1106	1323.8217	1370.3993	1393.0621	1489.2927	1525.6349	1607.6916	1653.3808	3177.7803	3196.7887	3760.6909	3761.1819
OC1=NC=CN=C1O	Oc1nccnc1O	
InChI=1S/C4H4N2O2/c7-3-4(8)6-2-1-5-3/h1-2H,(H,5,7)(H,6,8)	InChI=1S/C4H4N2O2/c7-3-4(8)6-2-1-5-3/h1-2H,(H,5,7)(H,6,8)
