18
gdb 4946	5.14984	1.28838	1.11988	3.6815	74.97	-0.2109	0.0377	0.2486	1116.3899	0.154797	-344.034985	-344.026692	-344.025747	-344.068267	29.76	
C	 0.0124220243	 1.6121349207	 0.061290092	-0.370592
C	 0.0347868404	 0.0828715565	 0.001559333	-0.158822
N	 0.6681623663	-0.5257081725	 1.1602862844	 0.02902
C	 1.9200687069	-1.0608253183	 1.2207458961	-0.00575
N	 2.2252282836	-1.4904118258	 2.4235818728	-0.323514
C	 1.1177532578	-1.2222348267	 3.201212547	 0.279462
C	 1.0749490426	-1.5760720127	 4.6525367743	-0.484882
C	 0.1478448205	-0.6243447169	 2.4358903306	-0.211877
H	 1.0283735288	 2.0125467383	 0.1214313771	 0.13382
H	-0.4681203179	 2.0176998489	-0.8343251316	 0.122265
H	-0.5432146162	 1.9629966491	 0.9354568892	 0.131307
H	-0.9839570797	-0.3103367677	-0.0861361264	 0.12336
H	 0.5841092937	-0.2549348628	-0.8822998051	 0.123579
H	 2.5553862568	-1.1116648384	 0.3476537996	 0.119954
H	 0.1219164627	-1.2835505983	 5.1021413717	 0.112561
H	 1.2058906885	-2.6535789147	 4.8004098077	 0.131079
H	 1.8798060024	-1.0771933524	 5.2033073089	 0.130991
H	-0.8449233615	-0.2747162261	 2.6694234488	 0.118038
56.2754	104.7589	113.6506	200.4702	259.3016	286.5411	391.4603	412.9685	597.4871	650.5721	685.1244	721.7616	725.6538	795.6997	819.4735	962.4292	980.7923	1015.4654	1062.5166	1063.9277	1098.6893	1118.1616	1186.7853	1253.688	1279.8408	1316.3596	1388.5633	1392.0963	1411.1363	1422.1462	1433.5699	1475.8524	1484.3636	1489.9903	1490.4235	1506.5342	1539.6943	1601.3909	3032.6915	3043.7417	3045.6121	3086.6996	3088.6448	3112.9388	3118.4314	3125.9516	3236.3088	3261.4723
CCN1C=NC(C)=C1	CCn1cnc(C)c1	
InChI=1S/C6H10N2/c1-3-8-4-6(2)7-5-8/h4-5H,3H2,1-2H3	InChI=1S/C6H10N2/c1-3-8-4-6(2)7-5-8/h4-5H,3H2,1-2H3
