17
gdb 3165	5.46879	2.32227	1.92614	0.0532	68.79	-0.2324	0.032	0.2643	716.9603	0.149819	-272.582516	-272.576189	-272.575245	-272.613041	24.753	
C	 0.2143959151	 1.5358852039	 0.0082066733	-0.310789
C	 1.326918394	 0.5151384233	-0.007803071	-0.303184
C	-0.1133748567	 0.0674527485	 0.0035081201	 0.381311
C	-0.6947720927	-0.6272925766	 1.2475931191	-0.333007
C	-1.3926583087	-1.8344160254	 0.6714162353	-0.057365
C	-1.405317826	-1.8273297308	-0.6601598236	-0.05737
C	-0.718389616	-0.6140721941	-1.2366219398	-0.333007
H	 0.046564566	 2.0949410455	 0.9236856377	 0.106495
H	 0.0292453597	 2.1046361744	-0.8979137092	 0.106495
H	 1.8939032859	 0.3917381547	-0.9255035631	 0.106673
H	 1.911237303	 0.3820360293	 0.8975856703	 0.106673
H	 0.0828703475	-0.8996385572	 1.9731657717	 0.101834
H	-1.4043732086	 0.0168433766	 1.7877286916	 0.103325
H	-1.844500028	-2.5965407974	 1.2970106243	 0.088378
H	-1.8690488128	-2.5827993436	-1.2851261907	 0.088378
H	-1.4380661353	 0.0357036795	-1.7562837572	 0.103325
H	 0.0452903737	-0.8786028606	-1.9797049189	 0.101834
42.3445	287.1129	322.3275	388.8134	404.2286	505.5608	694.9058	773.0074	779.7397	780.9977	861.5135	899.292	921.9102	976.6254	977.0927	984.1061	987.5333	1009.7862	1044.6667	1056.4247	1081.1192	1131.6866	1169.2355	1189.5529	1203.6502	1259.9543	1279.1758	1296.1329	1373.0497	1377.3316	1467.2954	1484.6969	1490.0513	1503.3377	1692.1114	2993.8312	2995.2839	3027.7637	3028.9087	3115.5662	3120.1719	3178.5427	3193.1758	3204.0987	3209.0494
C1CC11CC=CC1	C1CC21CC=CC2	
InChI=1S/C7H10/c1-2-4-7(3-1)5-6-7/h1-2H,3-6H2	InChI=1S/C7H10/c1-2-4-7(3-1)5-6-7/h1-2H,3-6H2
