14
gdb 3398	4.76309	2.4405	2.21585	2.3623	58.09	-0.2301	-0.0213	0.2088	647.6019	0.113029	-324.540084	-324.533737	-324.532793	-324.570221	23.601	
C	-0.1092255015	 1.5246899205	 0.0252167449	-0.320948
N	 0.0892609637	 0.0841268595	-0.1047046833	-0.07334
C	 0.676386795	-0.5432869282	-1.2520931539	-0.033266
C	 1.7877263915	 0.304758138	-1.8961764902	-0.378009
C	 2.5052587476	 0.249147451	-0.5181773061	 0.407038
O	 3.6008907007	 0.5635451551	-0.1532562339	-0.303229
C	 1.3823911095	-0.5577804543	 0.1078116709	-0.171863
H	 0.6859166728	 2.1537715052	-0.3953492951	 0.119911
H	-1.0521564425	 1.7858402826	-0.4644852662	 0.130781
H	-0.2017300374	 1.7601918297	 1.0888503805	 0.136949
H	 0.1579972321	-1.3716284984	-1.7213589474	 0.111921
H	 2.3826038461	-0.2391162603	-2.6361780158	 0.136119
H	 1.5107082204	 1.277868089	-2.3081953742	 0.125659
H	 1.469084602	-1.3247938692	 0.8697640097	 0.112276
115.2787	156.6049	291.1692	357.2635	445.553	486.5384	602.9264	662.2947	712.4993	838.3936	848.6879	908.3206	966.7164	984.8151	1002.7945	1044.933	1089.0182	1128.4068	1166.7373	1177.6664	1198.8542	1236.1437	1277.5837	1361.3804	1448.3206	1462.7133	1497.1461	1503.1608	1883.8128	3013.4955	3064.8651	3086.4223	3116.7913	3117.7087	3174.2622	3184.837
CN1C2CC(=O)C12	CN1[C@H]2CC(=O)[C@@H]12	
InChI=1S/C5H7NO/c1-6-3-2-4(7)5(3)6/h3,5H,2H2,1H3	InChI=1S/C5H7NO/c1-6-3-2-4(7)5(3)6/h3,5H,2H2,1H3/t3-,5-,6?/m0/s1
