13
gdb 286	4.85146	3.44622	2.14957	5.0933	45.76	-0.251	0.0174	0.2683	578.6969	0.108391	-323.665247	-323.658667	-323.657723	-323.695493	23.344	
C	 0.1505504687	 1.4453807556	-0.3452865615	-0.387537
C	 0.041139386	-0.0249775259	 0.0601171664	-0.111749
N	 0.6596005024	-0.3777892253	 1.3517363206	-0.535524
H	-0.8740832256	-1.4725113146	 1.5304505129	 0.305406
H	 1.6531349863	-0.5500635645	 1.249092036	 0.247352
H	 0.5590577474	 0.3883402951	 2.0120432603	 0.243631
C	-1.4320296814	-0.4952527349	 0.0600417249	 0.435239
O	-2.2433749637	-0.1171179567	-0.7423447538	-0.339674
O	-1.7077842515	-1.3902214288	 1.0165469793	-0.368685
H	 1.196141123	 1.733286451	-0.488686701	 0.110377
H	-0.400210333	 1.6190806756	-1.2714130671	 0.156405
H	-0.2830675097	 2.0918313833	 0.4262500085	 0.120835
H	 0.5298382811	-0.6431896999	-0.7039087554	 0.123923
74.0481	221.7524	273.0467	292.4266	351.211	405.5918	529.6839	560.9321	736.4878	802.5886	856.0766	885.7118	941.2096	1018.5811	1090.9023	1147.5743	1216.7758	1234.5353	1316.4758	1392.1679	1403.6001	1428.9606	1489.5013	1497.8595	1658.4752	1867.982	3034.1472	3039.4856	3105.0927	3143.1848	3474.5302	3501.1698	3586.252
CC([NH3+])C([O-])=O	C[C@@H](N)C(=O)O	
InChI=1S/C3H7NO2/c1-2(4)3(5)6/h2H,4H2,1H3,(H,5,6)	InChI=1S/C3H7NO2/c1-2(4)3(5)6/h2H,4H2,1H3,(H,5,6)/t2-/m1/s1
