13
gdb 1431	7.85448	1.16098	1.02438	4.7561	61.12	-0.2543	-0.0448	0.2095	1092.054	0.098324	-344.433499	-344.424896	-344.423952	-344.469488	27.439	
C	 0.0476743824	 1.4331989174	 0.0091651245	-0.502737
C	 0.0274456243	-0.0192481387	 0.0009271239	 0.08103
C	-0.0058368537	-1.2257120536	-0.0057391028	 0.013367
C	-0.0541002009	-2.6759521826	-0.0136964138	 0.232176
O	-1.0893564902	-3.2987744728	-0.0097690881	-0.263673
C	 1.321073776	-3.335225241	-0.0274282422	-0.175783
O	 1.1760988274	-4.7286621798	-0.0344212602	-0.395064
H	 1.0712670866	 1.8213837219	-0.0045717274	 0.157126
H	-0.4792063512	 1.8330460894	-0.863977479	 0.164795
H	-0.4512839471	 1.8224333373	 0.9032710602	 0.164789
H	 1.8572375808	-2.9504330717	-0.9125357202	 0.114976
H	 1.8699919278	-2.9606317886	 0.8542293229	 0.114978
H	 2.0545257979	-5.1194817671	-0.0429854778	 0.29402
4.8953	78.9912	89.4138	155.2117	213.9095	259.9527	324.3802	384.6497	440.9158	572.532	578.2809	769.9228	962.4828	1012.8924	1045.2704	1054.592	1129.5211	1187.1606	1243.0063	1246.8389	1410.0202	1440.6382	1470.504	1472.9962	1488.8796	1786.2306	2340.4366	2953.2295	2976.2323	3032.1459	3096.0334	3099.3319	3837.5684
CC#CC(=O)CO	CC#CC(=O)CO	
InChI=1S/C5H6O2/c1-2-3-5(7)4-6/h6H,4H2,1H3	InChI=1S/C5H6O2/c1-2-3-5(7)4-6/h6H,4H2,1H3
