10
gdb 2620	13.61362	0.95421	0.89662	1.7679	57.74	-0.2835	-0.0801	0.2034	1142.9084	0.064964	-322.158791	-322.151462	-322.150518	-322.191531	23.127	
O	-0.0646740809	-0.0757834191	 0.0023327339	-0.217926
C	-0.0194008912	 1.1312409744	 0.0073932411	 0.029453
C	 1.2082168524	 1.8936359321	 0.0003445927	 0.029415
C	 2.2162569831	 2.5542531479	-0.0052945963	 0.128483
C	 3.4551201335	 3.3238155211	-0.0129237162	-0.476715
C	 3.2395127459	 4.7762587786	-0.0032088688	 0.282905
N	 3.0835418502	 5.9197556461	 0.0043147527	-0.287441
H	-0.9369766747	 1.7517009269	 0.0179723943	 0.114133
H	 4.0672639208	 3.0530455319	 0.8572261178	 0.19884
H	 4.0506840508	 3.0623363101	-0.8973080913	 0.198853
37.9009	77.6517	170.4924	173.9106	351.4412	359.6977	395.0504	508.4651	631.7495	829.5188	926.299	933.5078	1020.5544	1152.1426	1231.3146	1335.5196	1420.202	1435.1521	1773.7335	2346.8321	2376.9253	2937.3887	3029.4307	3061.1883
O=CC#CCC#N	O=CC#CCC#N	
InChI=1S/C5H3NO/c6-4-2-1-3-5-7/h5H,2H2	InChI=1S/C5H3NO/c6-4-2-1-3-5-7/h5H,2H2
