12
gdb 3771	4.13176	3.54598	1.9314	1.103	53.19	-0.2165	-0.0138	0.2027	619.9974	0.091175	-352.845678	-352.839014	-352.83807	-352.876901	22.728	
C	 0.0569186954	 1.4096674944	-0.001709418	-0.318802
N	 0.0054170666	-0.0318018292	 0.028159567	-0.02618
N	-0.1412830738	-0.780151998	-1.0964728289	-0.106748
N	-0.1538334258	-2.0052618265	-0.7755050913	-0.078307
N	-0.0135500421	-2.0765450424	 0.5824755282	-0.315933
C	 0.0950753971	-0.8218986107	 1.1630756251	 0.480565
N	 0.23712019	-0.3799626985	 2.3527380281	-0.59902
H	 1.0068618333	 1.7621820669	 0.4098898295	 0.15554
H	-0.0418037514	 1.7243597933	-1.0403574998	 0.157446
H	-0.7560860897	 1.8288722166	 0.5977301171	 0.15561
H	 0.0001169509	-2.9735126163	 1.0342690395	 0.282528
H	 0.2803973596	-1.1322914296	 3.0343394934	 0.2133
42.7912	165.4737	191.7431	271.4122	363.8973	481.4811	675.0573	693.5662	702.2791	722.2256	786.0792	963.1033	1025.5001	1068.7088	1085.8152	1159.8415	1250.1795	1301.3397	1370.6202	1430.6381	1457.8502	1470.9972	1502.5066	1515.7037	1760.3265	3050.7083	3112.8213	3165.8903	3532.2782	3700.4099
CN1N=NNC1=N	CN1N=NN[C@H]1[NH]	
InChI=1S/C2H5N5/c1-7-2(3)4-5-6-7/h1H3,(H2,3,4,6)	InChI=1S/C2H6N5/c1-7-2(3)4-5-6-7/h2-3H,1H3,(H,4,6)/t2-/m1/s1
