13
gdb 2406	6.40173	2.17479	2.04446	2.8713	54.	-0.2409	0.0032	0.2441	643.087	0.102194	-344.409533	-344.403693	-344.402749	-344.438937	22.467	
O	-0.035220768	 1.4342014954	-0.0497098847	-0.432857
C	 0.0181451739	 0.0345832003	 0.0050484658	 0.154217
C	-0.0131316321	-0.6677099213	 1.42167213	-0.23052
C	-1.4960671462	-0.1545014636	 1.5150384471	-0.233114
C	-1.3811978501	-0.6534524273	 0.0261277315	-0.199564
C	-0.6328244572	-1.8380026086	 0.6541457098	 0.447149
O	-0.5922460002	-3.028359101	 0.6027654639	-0.322611
H	 0.8406159148	 1.7762200476	 0.1553995386	 0.291961
H	 0.744553218	-0.3680817989	-0.7104462642	 0.087698
H	 0.7528454365	-0.6662029122	 2.1943274887	 0.090832
H	-2.1720833299	-0.6997918055	 2.1739777033	 0.115007
H	-1.589000494	 0.9242750234	 1.6129787179	 0.133224
H	-2.1405444756	-0.6355958083	-0.7515377978	 0.098577
168.0966	282.8717	313.9322	365.6219	493.8586	552.8389	699.2365	721.1123	766.8458	786.0006	873.9846	918.5772	973.5013	1027.9742	1032.8254	1056.932	1119.7918	1125.3831	1136.1863	1178.0997	1196.0537	1213.641	1236.6785	1317.1601	1434.8118	1505.3721	1921.2566	3036.6107	3096.0886	3145.2444	3157.901	3182.2852	3821.0795
OC1C2CC1C2=O	O[C@H]1[C@H]2C[C@@H]1C2=O	
InChI=1S/C5H6O2/c6-4-2-1-3(4)5(2)7/h2-4,6H,1H2	InChI=1S/C5H6O2/c6-4-2-1-3(4)5(2)7/h2-4,6H,1H2/t2-,3+,4+
