23
gdb 1691	3.74455	1.64436	1.23926	0.0663	77.88	-0.2985	0.0837	0.3822	1068.0204	0.216155	-276.201993	-276.192206	-276.191262	-276.237012	35.513	
C	-0.0597931917	 1.5872721826	 0.100877323	-0.389502
C	 0.056110081	 0.0595427027	 0.0345627904	-0.172877
C	 0.7321243123	-0.4878978876	-1.2413385451	 0.067105
C	 2.1998312984	-0.0339028955	-1.3103204419	-0.406071
C	 0.595009845	-2.0321148586	-1.3489426602	 0.051179
C	-0.8710079202	-2.4861154615	-1.4546848086	-0.395377
C	 1.3811374931	-2.6154496987	-2.5353267344	-0.398483
H	 0.9158251087	 2.0793997157	 0.1499864421	 0.117277
H	-0.5864075543	 1.9807580735	-0.7762099228	 0.111917
H	-0.6225089565	 1.8941046595	 0.9884136351	 0.109722
H	 0.6101129687	-0.3039907728	 0.9116745043	 0.089026
H	-0.9520358634	-0.3564707399	 0.1210722257	 0.094376
H	 0.2058721554	-0.0558397949	-2.1076896568	 0.061504
H	 2.6635832884	-0.2863178031	-2.266567042	 0.114158
H	 2.2886133331	 1.0488114356	-1.1884542346	 0.111327
H	 2.792103842	-0.5052839254	-0.515827601	 0.108221
H	 1.0164363441	-2.4618595506	-0.4270793677	 0.066012
H	-0.9285731056	-3.5747250603	-1.5575226684	 0.107581
H	-1.4666095558	-2.2120337604	-0.5807856597	 0.114271
H	-1.3513944404	-2.0471320304	-2.3378587827	 0.109539
H	 2.4593496872	-2.4707091699	-2.436003248	 0.113781
H	 1.2017074092	-3.6922848388	-2.6202975762	 0.106432
H	 1.0658858413	-2.1548822811	-3.4799890806	 0.108883
20.2433	66.8703	188.6706	201.5992	214.9997	234.5654	253.8123	333.5433	365.6538	379.8937	417.4695	451.4533	487.1715	760.6297	795.5388	849.6854	924.3646	929.4781	963.3448	966.2545	994.7905	1006.6771	1046.4013	1090.5536	1168.7943	1175.9532	1191.9361	1202.4728	1280.8515	1309.8019	1343.9668	1352.7232	1371.0025	1382.5169	1400.9887	1406.3221	1414.4889	1421.8428	1480.9925	1487.8844	1491.9696	1497.829	1499.2657	1505.9615	1509.2335	1512.3596	1525.1085	2972.8366	2989.0564	3013.1974	3024.5821	3030.0253	3030.8039	3033.0399	3074.1173	3085.435	3093.1239	3095.3765	3100.1692	3107.7461	3114.2451	3116.0176	3123.4175
CCC(C)C(C)C	CC[C@@H](C)C(C)C	
InChI=1S/C7H16/c1-5-7(4)6(2)3/h6-7H,5H2,1-4H3	InChI=1S/C7H16/c1-5-7(4)6(2)3/h6-7H,5H2,1-4H3/t7-/m1/s1
