15
gdb 4705	6.43994	1.26394	1.06358	4.9284	75.65	-0.2193	-0.0394	0.1798	1065.2701	0.119477	-362.725511	-362.717959	-362.717015	-362.757611	27.211	
C	-0.0041817828	 1.4994267819	 0.0960903812	-0.505639
C	-0.002685521	 0.0134912092	-0.0506732403	 0.306473
C	-0.0530441104	-0.7827814	-1.1897021826	-0.207596
C	-0.0263276926	-2.1287407643	-0.7802280113	-0.192348
C	 0.0399911552	-2.1443189724	 0.6069809525	 0.212603
N	 0.0527793774	-0.8234685197	 1.022363112	-0.347397
C	 0.0908602708	-3.2416324176	 1.5467777793	 0.068645
O	 0.0832384849	-4.4195134595	 1.2534901264	-0.2862
H	 0.8992356993	 1.8614418288	 0.6014422607	 0.136796
H	-0.046459849	 1.9710144898	-0.887652991	 0.145697
H	-0.8673355369	 1.85264982	 0.673048581	 0.137049
H	-0.1033148233	-0.4104243726	-2.2018217548	 0.102529
H	-0.0511167066	-3.0114095035	-1.3996191726	 0.125634
H	 0.0971121476	-0.5287053875	 1.9842268482	 0.262462
H	 0.1404283673	-2.9187691626	 2.6163096112	 0.041292
84.1788	119.9666	172.0764	255.8594	285.3549	330.8613	484.8259	516.3778	642.9632	657.1412	669.8049	767.8073	806.0137	883.2771	979.931	1011.4687	1018.6864	1020.8314	1060.2762	1064.6484	1203.512	1258.93	1316.9776	1405.9442	1414.7266	1429.8282	1467.4322	1481.4968	1503.6534	1523.6097	1611.6496	1778.6522	2818.0525	3024.7603	3072.6368	3131.2615	3245.0747	3268.3056	3655.4908
CC1=CC=C(N1)C=O	Cc1ccc([nH]1)C=O	
InChI=1S/C6H7NO/c1-5-2-3-6(4-8)7-5/h2-4,7H,1H3	InChI=1S/C6H7NO/c1-5-2-3-6(4-8)7-5/h2-4,7H,1H3
