19
gdb 3071	8.95943	1.08017	1.02678	0.8347	69.17	-0.2477	0.0925	0.3402	1192.5602	0.17062	-310.900102	-310.891764	-310.890819	-310.93337	29.383	
C	 0.2464043319	 1.4455097681	 0.0471570977	-0.383471
C	-0.023133525	-0.0447067244	-0.0779613255	-0.023796
O	 0.7099030229	-0.545391848	-1.1752457289	-0.242876
C	 0.5235934101	-1.9300924559	-1.3838778627	-0.063457
C	 1.2898586072	-2.3550764692	-2.605731914	 0.01314
C	 2.7563167994	-2.681611084	-2.4996960638	-0.246544
C	 1.7542273583	-3.7842560745	-2.7324930425	-0.273015
H	 1.3125257624	 1.6299018563	 0.2070549123	 0.125853
H	-0.0573395841	 1.9674229526	-0.8647701	 0.125479
H	-0.3099866513	 1.8656371262	 0.8904720632	 0.112087
H	 0.2695083504	-0.5689865508	 0.8486187198	 0.081188
H	-1.1017835859	-0.2318665828	-0.2212491146	 0.081916
H	 0.8702069519	-2.5025434964	-0.5046137758	 0.075936
H	-0.5512199265	-2.1529833053	-1.5058834494	 0.082275
H	 0.9681497356	-1.8646362222	-3.5198043008	 0.088547
H	 3.4068449266	-2.3937817025	-3.3177962654	 0.111906
H	 3.2176610727	-2.6121383869	-1.5201601747	 0.112877
H	 1.5448342161	-4.4620148274	-1.9110032584	 0.10998
H	 1.7132137974	-4.2512353828	-3.7100758563	 0.111975
59.9079	83.4446	124.0282	151.9289	246.3038	292.4556	325.1947	437.636	487.4788	775.358	816.0837	821.3492	841.1493	892.7293	928.3571	957.3765	1035.2751	1044.9723	1060.0756	1077.9789	1134.6453	1141.7716	1162.5576	1183.6946	1197.4164	1208.6751	1227.3143	1280.2266	1297.2789	1364.37	1398.4525	1415.6203	1461.3793	1471.8815	1483.3003	1499.1985	1505.0391	1514.1005	1535.9097	2933.994	2949.9254	2962.213	2968.2266	3044.2622	3118.2435	3120.9319	3131.1733	3136.2918	3152.7659	3208.9847	3224.3822
CCOCC1CC1	CCOCC1CC1	
InChI=1S/C6H12O/c1-2-7-5-6-3-4-6/h6H,2-5H2,1H3	InChI=1S/C6H12O/c1-2-7-5-6-3-4-6/h6H,2-5H2,1H3
