17
gdb 1086	4.55848	1.70964	1.67157	1.8257	65.74	-0.2559	0.0511	0.307	842.7392	0.144458	-309.692626	-309.683893	-309.682949	-309.724866	32.365	
C	-0.0356702091	 1.5706645562	 0.0884152036	-0.416015
C	-0.0038864573	 0.0389136506	 0.0314997098	 0.342269
C	 0.7554944177	-0.5406720739	 1.2341457654	-0.40964
O	-1.3320746404	-0.485867441	-0.0000939743	-0.453178
C	 0.6521507475	-0.4680710476	-1.2760836726	-0.35366
C	 0.0481891132	 0.0471360218	-2.4981154797	 0.321804
C	-0.4291228713	 0.4742306847	-3.5150755237	-0.453749
H	 0.9750875258	 1.991457571	 0.0737595235	 0.11416
H	-0.5921404323	 1.9709223703	-0.7617254991	 0.140607
H	-0.5188987142	 1.9057896185	 1.0138736104	 0.100695
H	 0.2773273208	-0.2300863448	 2.1698190924	 0.104155
H	 0.7498868707	-1.6338532569	 1.197317317	 0.121983
H	 1.7942146838	-0.1953663742	 1.2616544663	 0.113113
H	-1.8097716224	-0.1225805693	 0.7528825252	 0.276288
H	 1.7178146557	-0.2100070762	-1.2565413614	 0.124077
H	 0.5909531263	-1.5628340166	-1.2735089476	 0.135457
H	-0.8600130243	 0.8437583073	-4.4122368351	 0.191635
82.3587	147.9896	225.1373	248.4423	260.2618	309.8071	326.2411	350.4549	396.3534	399.0887	452.598	566.1118	609.562	639.6648	768.8266	881.3582	908.0946	926.1741	971.6927	999.2685	1023.5079	1147.7182	1171.3136	1196.8712	1291.7443	1341.2233	1376.243	1395.9957	1414.6043	1456.7221	1480.681	1484.4892	1497.9476	1508.1939	2239.3285	3027.162	3028.3747	3034.7196	3067.9458	3091.5915	3099.4327	3114.6244	3132.2125	3506.4757	3811.3368
CC(C)(O)CC#C	CC(C)(O)CC#C	
InChI=1S/C6H10O/c1-4-5-6(2,3)7/h1,7H,5H2,2-3H3	InChI=1S/C6H10O/c1-4-5-6(2,3)7/h1,7H,5H2,2-3H3
