12
gdb 404	5.89466	3.14775	2.48009	3.0748	51.03	-0.2722	0.029	0.3012	537.6808	0.09733	-265.408147	-265.402167	-265.401223	-265.437265	21.894	
N	-0.0888282143	 1.4312074156	-0.0007258311	-0.55552
C	-0.0195700317	-0.0085002003	-0.0057959219	 0.180824
C	-0.4691346499	-0.7119156255	 1.2630021998	-0.272861
C	-1.3440858063	-0.7497456028	 0.0465624575	-0.272819
C	 1.0566807083	-0.6195388137	-0.7611934248	 0.224744
N	 1.9321991551	-1.060005833	-1.3773170377	-0.346639
H	 0.7665399894	 1.8276591809	 0.3783813322	 0.244157
H	-0.186766463	 1.7864688957	-0.9476863338	 0.244155
H	 0.0565218852	-1.613638486	 1.5523045154	 0.139537
H	-0.7537642221	-0.0521034224	 2.0735377187	 0.137451
H	-2.2219906066	-0.1154176647	 0.0317685192	 0.137442
H	-1.4241808441	-1.6776751237	-0.5062890835	 0.139529
185.1107	207.7942	291.5997	362.0616	388.1209	576.1789	597.2785	666.6305	782.1431	863.7407	876.4923	910.7374	950.4779	1036.7312	1072.1183	1091.2659	1196.7633	1275.2874	1275.6743	1322.6324	1452.6678	1485.0859	1665.7607	2338.2341	3149.7859	3153.0336	3240.0027	3252.9673	3490.095	3566.2998
NC1(CC1)C#N	NC1(CC1)C#N	
InChI=1S/C4H6N2/c5-3-4(6)1-2-4/h1-2,6H2	InChI=1S/C4H6N2/c5-3-4(6)1-2-4/h1-2,6H2
