14
gdb 1877	5.25222	2.34589	1.87554	2.1299	54.72	-0.2682	0.0221	0.2903	691.6663	0.113906	-361.73284	-361.726264	-361.725319	-361.763621	23.63	
C	 0.3015992296	 1.3956491914	-0.0560036986	-0.39992
C	-0.168647627	-0.0423277004	 0.0869548664	 0.214675
O	 0.1363566683	-0.8335245527	-1.0430629491	-0.257847
C	 1.3047277276	-1.5815017193	-0.7491818523	-0.171611
C	 1.3877346099	-1.5703389336	 0.761243985	 0.381446
N	 2.1641185841	-2.2650673415	 1.4687391094	-0.534419
O	 0.4692667552	-0.6685021247	 1.208623929	-0.236188
H	 1.3831439361	 1.4325393458	-0.2162124289	 0.127982
H	-0.1980681612	 1.8604865317	-0.9100745146	 0.134359
H	 0.0602673752	 1.9631225663	 0.8469134126	 0.132818
H	-1.2507966526	-0.0929174276	 0.2524489139	 0.10435
H	 1.1985719553	-2.5953093528	-1.1419090133	 0.14696
H	 2.206047047	-1.1302439333	-1.1873910665	 0.129352
H	 2.0365994326	-2.0619047494	 2.460907377	 0.228043
86.3623	119.0087	231.5876	344.6033	448.5975	468.5082	528.4205	663.8116	751.1646	843.4051	874.912	889.4546	930.0861	1032.1974	1049.4823	1062.215	1081.602	1133.08	1186.3936	1207.5312	1291.0129	1350.4209	1387.6218	1395.6372	1413.8323	1482.9751	1486.1201	1509.3579	1796.8581	3011.493	3046.7882	3049.7421	3103.0314	3127.3876	3130.7042	3483.3745
CC1OCC(=N)O1	C[C@H]1OC[C]([NH])O1	
InChI=1S/C4H7NO2/c1-3-6-2-4(5)7-3/h3,5H,2H2,1H3	InChI=1S/C4H7NO2/c1-3-6-2-4(5)7-3/h3,5H,2H2,1H3/t3-/m0/s1
