13
gdb 1416	4.21935	1.83705	1.3474	3.401	56.98	-0.2856	-0.0024	0.2832	856.4029	0.100392	-340.64124	-340.633541	-340.632597	-340.673819	25.702	
C	 0.0760248321	 1.7985634627	 0.215014611	-0.397863
C	-0.1631397189	 0.3584960638	-0.2315267966	-0.020361
O	 0.3530065745	 0.2316293466	-1.553397729	-0.183129
C	 0.0097099272	-0.8897219143	-2.2398908289	 0.132772
N	 0.425798389	-1.0395837387	-3.4172565477	-0.425811
C	 0.4824283511	-0.6063599371	 0.6829652143	 0.27246
N	 0.9751081682	-1.3663417455	 1.400020304	-0.306402
H	 1.1447512846	 2.0217297536	 0.2063012941	 0.158845
H	-0.4338761882	 2.4742479791	-0.474749236	 0.146524
H	-0.3122311883	 1.9506534784	 1.2246010862	 0.144506
H	-1.2405958028	 0.1426378992	-0.2291389884	 0.134223
H	-0.6256975598	-1.5792826012	-1.6694219547	 0.105024
H	 0.0857430412	-1.9182056165	-3.8024257283	 0.239212
66.3225	80.2863	172.6925	222.2364	232.0381	276.6049	415.2019	514.2485	572.5116	656.694	814.8695	826.2934	925.471	1033.0787	1039.8513	1095.983	1130.5076	1152.7068	1276.9856	1337.8652	1359.8155	1410.9337	1427.4383	1481.8302	1495.0759	1754.8702	2359.0814	3015.3284	3040.0777	3061.7243	3145.4139	3149.7101	3523.2993
CC(OC=N)C#N	C[C@@H](O[CH][NH])C#N	
InChI=1S/C4H6N2O/c1-4(2-5)7-3-6/h3-4,6H,1H3	InChI=1S/C4H6N2O/c1-4(2-5)7-3-6/h3-4,6H,1H3/t4-/m1/s1
