15
gdb 1427	7.13815	1.51205	1.26707	1.7589	64.29	-0.2468	-0.0119	0.2349	918.5395	0.123886	-341.869641	-341.861452	-341.860508	-341.902708	27.579	
C	-0.615293297	 1.8924123581	-0.7435613716	-0.326423
N	-0.2548679277	 0.508301531	-0.9332843029	-0.275158
C	-0.6065792488	-0.4186819438	-0.1377221206	 0.371005
C	-1.4282692337	-0.3514595909	 1.1224384939	-0.46157
N	-0.1423503403	-1.6985023575	-0.51698024	-0.312782
C	-0.3097212802	-2.9240436644	 0.0724949494	 0.15948
O	-0.9201055497	-3.1694334022	 1.0882731709	-0.312078
H	 0.2996453826	 2.494273945	-0.6864322012	 0.130713
H	-1.1627598294	 2.2423722578	-1.6269736524	 0.130712
H	-1.2235682596	 2.1178843962	 0.1418245079	 0.108245
H	-1.7397799468	 0.6703363183	 1.3334537348	 0.125614
H	-2.3103790407	-0.9898219799	 1.0362499394	 0.16045
H	-0.8586317064	-0.7399999759	 1.9695412195	 0.16048
H	 0.4002790834	-1.6655694993	-1.3700187807	 0.254324
H	 0.2054291641	-3.7065110926	-0.5191830864	 0.086987
54.59	74.4341	139.4219	211.9779	214.8641	310.3304	339.4587	390.7933	524.5577	562.1036	711.4364	753.0496	847.2278	968.8115	1029.3331	1059.1423	1103.5297	1131.5266	1133.0445	1177.1096	1309.1432	1409.6791	1438.1554	1449.3163	1466.6683	1471.9356	1485.2722	1494.2658	1515.5815	1750.3731	1811.3578	2939.1713	3005.4626	3065.155	3069.7225	3072.8658	3131.7799	3164.904	3592.2373
CN=C(C)NC=O	CN=C(C)NC=O	
InChI=1S/C4H8N2O/c1-4(5-2)6-3-7/h3H,1-2H3,(H,5,6,7)	InChI=1S/C4H8N2O/c1-4(5-2)6-3-7/h3H,1-2H3,(H,5,6,7)
