10
gdb 2813	4.18141	2.38983	1.65881	3.4452	53.72	-0.2863	-0.0212	0.2651	694.9023	0.065073	-322.118085	-322.111612	-322.110668	-322.148618	22.632	
C	-0.1173141927	-1.2078098689	 0.0085486578	-0.395011
C	-0.0357354254	-0.0097002407	 0.0147388912	 0.3455
C	 0.0304645185	 1.4229487326	-0.0009861029	-0.14842
O	 0.5313384284	 2.0875873309	 1.1664854664	-0.211422
C	 1.3244308796	 2.1587147224	-0.0113589271	-0.096386
C	 2.5869392669	 1.4526999628	-0.0023365347	 0.316402
N	 3.610698232	 0.9178351447	-0.0228417213	-0.314805
H	-0.1748084973	-2.2688835984	 0.0087306509	 0.218256
H	-0.811142054	 1.931674099	-0.4697265719	 0.137585
H	 1.3584698539	 3.1344739256	-0.4932126281	 0.148301
98.4914	186.0205	244.1163	248.0997	442.657	525.3876	589.9141	635.4481	658.0106	690.0445	778.2934	849.0875	966.3915	1002.0495	1096.0919	1128.296	1266.582	1370.3024	1417.389	2249.1037	2366.2627	3120.705	3134.0486	3500.764
C#CC1OC1C#N	C#C[C@H]1O[C@H]1C#N	
InChI=1S/C5H3NO/c1-2-4-5(3-6)7-4/h1,4-5H	InChI=1S/C5H3NO/c1-2-4-5(3-6)7-4/h1,4-5H/t4-,5+/m1/s1
