14
gdb 4925	6.91221	1.29348	1.1009	2.1537	60.05	-0.1902	0.0384	0.2286	1024.1983	0.107847	-415.884014	-415.876507	-415.875563	-415.915725	27.423	
C	 0.0232219594	 1.3860048331	 0.1255859496	-0.328482
N	-0.0293416761	-0.0268128714	-0.1912560829	-0.37328
C	-1.2368228906	-0.6769364955	-0.0758240303	 0.319391
C	-2.501977963	-0.1850301838	 3.6464*^-6	-0.155251
O	-3.3602506831	-1.2959114937	 0.0382744476	-0.207395
C	-2.5250418281	-2.3419982485	-0.0001898168	 0.480021
O	-3.0646362992	-3.5591419211	 0.036285103	-0.402518
N	-1.2652214663	-2.072417774	-0.0669443752	-0.403336
H	 1.0503454337	 1.7416901239	 0.0218751314	 0.128843
H	-0.5961493466	 1.946395473	-0.5842508262	 0.132956
H	-0.3330327041	 1.6194533366	 1.1418502068	 0.11359
H	 0.7388809379	-0.5832555433	 0.1536898213	 0.247313
H	-2.9682070844	 0.7808586098	 0.0188184368	 0.131745
H	-4.0232739796	-3.4625255652	 0.0879687784	 0.316403
97.2133	166.3067	197.4243	261.7725	350.1298	365.216	379.0222	512.8006	532.9364	549.3818	690.9131	706.5769	752.6413	768.1456	990.3629	1003.3748	1083.135	1101.6659	1156.0716	1175.4406	1224.0775	1267.0467	1310.2474	1440.1533	1457.9978	1480.4184	1505.3192	1525.2652	1678.3879	1702.8653	2975.5628	3057.8873	3124.4372	3324.4446	3608.8931	3815.9084
CNC1=COC(O)=N1	CNc1coc(O)n1	
InChI=1S/C4H6N2O2/c1-5-3-2-8-4(7)6-3/h2,5H,1H3,(H,6,7)	InChI=1S/C4H6N2O2/c1-5-3-2-8-4(7)6-3/h2,5H,1H3,(H,6,7)
