23
gdb 1570	5.74284	1.08531	0.97761	0.0449	78.49	-0.2976	0.0854	0.383	1297.8598	0.216515	-276.204532	-276.194768	-276.193824	-276.239054	34.924	
C	-0.0502242631	 1.6182756363	-0.090147648	-0.377671
C	 0.0181569857	 0.0927859729	 0.0307589553	-0.176293
C	-1.3687729701	-0.5600925822	 0.0803942915	-0.157486
C	-1.3764325148	-2.1008369937	 0.0865013583	 0.046855
C	-0.720227501	-2.6724118717	 1.3521897298	-0.389434
C	-2.8150292862	-2.6223667401	-0.0986373572	-0.165402
C	-2.9345676096	-4.1325623824	-0.3278069699	-0.391002
H	 0.9494367159	 2.0629113618	-0.1248756705	 0.108956
H	-0.5811703487	 1.9199888402	-1.0000529372	 0.112111
H	-0.5808949339	 2.059453031	 0.761149341	 0.112622
H	 0.5790396552	-0.3164789491	-0.8204621968	 0.091851
H	 0.5919442763	-0.1699402286	 0.9271946965	 0.097638
H	-1.9100837703	-0.194998334	 0.9658956517	 0.086616
H	-1.9459337191	-0.2124372853	-0.7876117744	 0.085131
H	-0.7891289326	-2.4384516299	-0.7818077684	 0.064245
H	-0.7006236405	-3.7658312432	 1.3397797122	 0.112246
H	 0.3135050254	-2.3326717276	 1.4617673118	 0.113301
H	-1.2702025341	-2.3595661654	 2.2486952865	 0.108315
H	-3.4138277977	-2.3357960238	 0.7774021879	 0.089749
H	-3.2646972227	-2.10084543	-0.95347894	 0.088931
H	-2.6000634772	-4.7102640855	 0.5392278524	 0.117043
H	-3.9732149513	-4.4158301102	-0.5262301979	 0.1102
H	-2.3350525356	-4.4497535695	-1.1889010548	 0.111478
65.3149	76.4256	107.0389	151.6107	213.4764	242.6757	260.7291	295.3769	319.3839	373.4988	433.4209	500.66	742.0643	774.0715	820.7458	867.6321	882.2061	939.3159	970.9611	995.7528	1032.2231	1044.3007	1061.5939	1089.001	1168.8069	1177.5123	1202.152	1260.6282	1288.8753	1304.338	1328.3289	1341.5363	1378.9423	1382.8987	1394.5135	1410.2347	1414.03	1416.8613	1475.7247	1486.7327	1493.719	1497.3991	1499.3138	1499.7207	1507.7398	1511.2562	1515.4087	2979.9489	2995.0108	3009.4004	3017.015	3027.4772	3027.6513	3028.9058	3031.7182	3043.7844	3059.4297	3094.4069	3095.5189	3096.2084	3099.5201	3104.4382	3112.4339
CCCC(C)CC	CCC[C@@H](C)CC	
InChI=1S/C7H16/c1-4-6-7(3)5-2/h7H,4-6H2,1-3H3	InChI=1S/C7H16/c1-4-6-7(3)5-2/h7H,4-6H2,1-3H3/t7-/m0/s1
