12
gdb 3795	7.80865	2.00613	1.62704	4.7042	52.4	-0.2361	-0.0324	0.2037	717.2979	0.091011	-356.645883	-356.639597	-356.638653	-356.676371	21.898	
C	 0.0291653441	 1.4258060452	 0.1346833774	-0.334036
N	-0.0453306031	 0.0177923261	-0.2202685227	-0.370092
C	-1.2235959157	-0.6673671058	-0.0765729426	 0.394258
N	-1.2817647419	-1.9719048081	 0.0645101775	-0.196946
O	-2.6277373709	-2.2743677911	 0.1058938755	-0.1514
N	-3.3915448716	-1.158158607	 0.0067098788	-0.059079
C	-2.5616326121	-0.1600499276	-0.1052294031	-0.091751
H	 1.0384162224	 1.7851441248	-0.0754053794	 0.141048
H	-0.6599329127	 2.0074623067	-0.4853918803	 0.141218
H	-0.2008276641	 1.6268948307	 1.1911782904	 0.127282
H	 0.7651733965	-0.5342257009	 0.0188852098	 0.258
H	-2.9197829809	 0.8522968971	-0.2003383513	 0.141497
84.9217	154.2855	217.3281	336.0958	442.5508	573.9336	621.5183	710.5994	728.8013	862.6759	916.4171	931.1402	1017.5115	1046.6759	1091.491	1152.8101	1186.7478	1239.0624	1407.5402	1455.1681	1490.0625	1496.6087	1512.3148	1526.4304	1652.1812	2997.741	3080.1805	3130.2508	3274.939	3611.3621
CNC1=NON=C1	CNc1nonc1	
InChI=1S/C3H5N3O/c1-4-3-2-5-7-6-3/h2H,1H3,(H,4,6)	InChI=1S/C3H5N3O/c1-4-3-2-5-7-6-3/h2H,1H3,(H,4,6)
