19
gdb 2208	3.65379	2.36165	1.77357	1.6289	67.15	-0.2377	0.0821	0.3199	807.0515	0.170548	-310.915918	-310.907806	-310.906862	-310.948151	29.831	
C	 0.1193620508	 1.5425294993	-0.1791044716	-0.404106
C	 0.0679243402	 0.0476389219	 0.0641576616	 0.163629
O	 0.9250855227	-0.6901921921	-0.838007211	-0.313729
C	 1.4251658304	-1.5167285569	 0.2389278858	 0.163631
C	 2.9289229671	-1.6957970299	 0.182638256	-0.404106
C	 0.7571204784	-0.5969238316	 1.3012382916	-0.071944
C	 1.6624993796	 0.2839092992	 2.1545591732	-0.406095
H	 1.1367019193	 1.931927212	-0.0911487086	 0.118798
H	-0.2399288066	 1.7630184704	-1.1894253087	 0.126382
H	-0.5239569845	 2.0725222634	 0.5317332563	 0.113244
H	-0.9724569829	-0.2987601168	-0.0371709485	 0.065009
H	 0.9426896786	-2.506172224	 0.2094394359	 0.06501
H	 3.451776039	-0.7364382325	 0.2071668091	 0.118794
H	 3.2771763173	-2.3089399007	 1.0209793501	 0.113242
H	 3.2037065591	-2.2059409007	-0.7461798437	 0.126388
H	 0.058790809	-1.1300540591	 1.9523348686	 0.069008
H	 2.3863989811	 0.8453542941	 1.5578790097	 0.12419
H	 1.0714108603	 1.0079988146	 2.7250899826	 0.116327
H	 2.2247006712	-0.3212378106	 2.8735335517	 0.116327
47.2159	203.2573	204.7628	217.3968	249.7288	280.6228	364.7186	380.3965	490.2546	494.6745	734.1025	771.256	785.6602	877.7134	915.9155	989.4611	999.4628	1045.0958	1054.3466	1076.0079	1122.1519	1160.9643	1175.9978	1196.1918	1263.0734	1284.6744	1336.4133	1372.5512	1377.3265	1395.9368	1403.6586	1414.3092	1432.0972	1477.8188	1478.9904	1488.5551	1498.508	1503.2962	1511.8633	2970.3973	2975.7953	3034.339	3037.394	3039.7238	3063.001	3097.2628	3104.7567	3105.1143	3111.0837	3121.2236	3125.282
CC1OC(C)C1C	C[C@H]1O[C@@H](C)[C@H]1C	
InChI=1S/C6H12O/c1-4-5(2)7-6(4)3/h4-6H,1-3H3	InChI=1S/C6H12O/c1-4-5(2)7-6(4)3/h4-6H,1-3H3/t4-,5+,6-
