17
gdb 1244	6.94554	1.14114	1.03888	1.487	66.62	-0.2539	0.0595	0.3134	1119.7842	0.145642	-309.690179	-309.681525	-309.68058	-309.723169	31.127	
C	 0.0234115516	 1.5588578263	 0.0543379778	-0.407838
C	-0.0008242942	 0.0309579491	 0.026383354	 0.137034
O	 0.7203816678	-0.518912452	 1.1286254178	-0.427873
C	-1.4283841464	-0.5255082205	-0.0410651983	-0.184941
C	-1.4556352543	-2.0645667888	-0.1152786147	-0.35228
C	-2.8058911087	-2.61183342	-0.1035999591	 0.291582
C	-3.930508092	-3.0367315996	-0.0903322204	-0.441738
H	 1.0529834795	 1.9204130181	 0.1209744472	 0.125907
H	-0.4373032751	 1.9805764524	-0.844656555	 0.118842
H	-0.5309401689	 1.9399934314	 0.9214617772	 0.108002
H	 0.554386011	-0.3179453906	-0.8541831081	 0.089365
H	 0.3200324507	-0.1779466331	 1.9367299195	 0.277302
H	-1.9880986455	-0.1952796818	 0.8444506386	 0.098017
H	-1.9471171239	-0.1046795774	-0.9099060186	 0.108285
H	-0.9345981075	-2.3936266773	-1.0243067222	 0.126816
H	-0.8776302771	-2.4653673606	 0.724798308	 0.142369
H	-4.917677957	-3.4269591157	-0.0796274534	 0.191148
65.9206	116.9143	125.6386	236.7142	247.3266	311.2386	344.2714	346.7941	449.8837	480.4711	529.414	613.0465	632.9506	770.0928	849.0734	933.114	952.6583	966.8171	1038.0834	1075.5242	1102.056	1150.5273	1183.1369	1269.9081	1291.3062	1338.733	1353.547	1388.2435	1404.5901	1421.4066	1473.188	1486.3273	1494.3534	1495.7114	2238.1329	3015.747	3021.7752	3023.9609	3034.4253	3060.8063	3079.5644	3095.4269	3120.0849	3507.8819	3792.5142
CC(O)CCC#C	C[C@@H](O)CCC#C	
InChI=1S/C6H10O/c1-3-4-5-6(2)7/h1,6-7H,4-5H2,2H3	InChI=1S/C6H10O/c1-3-4-5-6(2)7/h1,6-7H,4-5H2,2H3/t6-/m1/s1
