10
gdb 1030	8.58513	2.10593	1.6911	4.3222	52.75	-0.2688	-0.0791	0.1897	660.3451	0.067721	-359.345792	-359.340374	-359.339429	-359.375205	18.814	
O	-0.1336363912	 0.0236800734	-0.0009660191	-0.237357
C	 0.0230400063	 1.2180579797	 0.0063324118	 0.091522
C	 1.337902999	 1.8802597255	-0.0028087013	 0.294154
N	 2.5367497592	 1.3738716385	-0.0201540724	-0.266727
C	 3.3749029077	 2.4650746578	-0.0203118959	-0.100219
C	 2.6258638537	 3.6025437375	-0.0033242618	-0.028206
O	 1.3211117209	 3.2457733179	 0.007683432	-0.1527
H	-0.8223489841	 1.9367760477	 0.0217312846	 0.097264
H	 4.4484336507	 2.3625877379	-0.0326397394	 0.140173
H	 2.8430101778	 4.6571905942	 0.0026585714	 0.162095
143.0396	215.7266	261.7729	492.5451	633.8921	708.0326	788.056	796.5489	885.2559	932.8056	969.6553	1025.4433	1124.0394	1151.4736	1164.2324	1235.1404	1370.8157	1439.6747	1503.7858	1583.8409	1813.5476	2923.3537	3265.8003	3297.4378
O=CC1=NC=CO1	O=Cc1ncco1	
InChI=1S/C4H3NO2/c6-3-4-5-1-2-7-4/h1-3H	InChI=1S/C4H3NO2/c6-3-4-5-1-2-7-4/h1-3H
