14
gdb 2612	11.91652	0.95161	0.89581	3.6757	64.06	-0.2743	0.0209	0.2953	1189.673	0.112156	-287.426977	-287.419156	-287.418211	-287.459368	26.995	
C	-0.0295733216	-1.2258217666	-0.0042022485	-0.418601
C	-0.0348628273	-0.0243489735	 0.0023666708	 0.283326
C	-0.0063710242	 1.4323034186	 0.0103282074	-0.359164
C	 1.4284337448	 1.9945636628	-0.0012507639	-0.174388
C	 1.4260610202	 3.535497722	 0.0075135351	-0.34175
C	 2.7746047577	 4.0970898986	-0.0029157549	 0.255995
N	 3.8475391245	 4.5258294375	-0.0118575752	-0.299591
H	-0.0366796454	-2.2876611375	-0.009771401	 0.200678
H	-0.5572070597	 1.8151259371	-0.8592693942	 0.135407
H	-0.5391506389	 1.8051961863	 0.8953501931	 0.135419
H	 1.9761041008	 1.6225356533	 0.8693027375	 0.137188
H	 1.9580506425	 1.6324550061	-0.8870243077	 0.137193
H	 0.8829622882	 3.9202959716	-0.8640277318	 0.154154
H	 0.9009393584	 3.9103338836	 0.8942614033	 0.154135
94.6535	95.5805	98.9573	206.2075	316.2238	345.3814	398.3447	465.6966	574.5889	625.8233	648.5315	741.3263	844.4565	916.4419	988.2122	1032.8179	1040.2648	1085.0227	1180.0031	1263.9278	1297.3941	1324.6392	1349.9235	1389.9132	1468.667	1475.3123	1501.8807	2243.0686	2364.1104	3014.1247	3036.6711	3043.5654	3067.0497	3071.5554	3114.5445	3505.8421
C#CCCCC#N	C#CCCCC#N	
InChI=1S/C6H7N/c1-2-3-4-5-6-7/h1H,3-5H2	InChI=1S/C6H7N/c1-2-3-4-5-6-7/h1H,3-5H2
