14
gdb 4095	3.5542	1.86465	1.26704	1.987	62.74	-0.2208	-0.0713	0.1495	901.7129	0.107854	-415.818992	-415.811765	-415.810821	-415.850718	26.516	
O	-0.0570780907	 1.2853833046	-0.2344225803	-0.347479
N	 0.017213587	-0.0771972629	-0.0212952902	-0.208046
C	-1.1205537766	-0.6447360227	 0.1068416657	 0.284587
C	-1.2492805274	-2.1414895139	 0.3048347879	-0.25644
N	-2.6184151865	-2.4783998018	-0.1376818872	-0.297613
C	-3.4394145331	-1.3053702729	 0.1944044636	-0.285527
C	-2.5197140279	-0.0773317874	 0.0831207321	 0.325583
O	-2.8587149949	 1.0751506351	-7.8349*^-6	-0.295746
H	 0.872066122	 1.532005718	-0.3138751102	 0.315573
H	-0.4998017551	-2.7102566812	-0.2478484454	 0.132719
H	-1.1446265039	-2.4005483869	 1.3675919252	 0.129077
H	-2.6076373125	-2.5840877412	-1.147711355	 0.229202
H	-4.3130530195	-1.2104530662	-0.4534908367	 0.137065
H	-3.802335381	-1.3794440305	 1.2297948255	 0.137043
76.1559	171.2895	212.299	287.3691	320.7172	435.7303	462.5121	508.3278	591.4709	665.4811	701.3463	714.4462	832.1756	923.5372	968.2341	1014.743	1022.1119	1095.1719	1101.4071	1165.4179	1202.6869	1287.1438	1301.3053	1344.8942	1420.5317	1461.1598	1467.2247	1486.6719	1702.9713	1832.6838	3010.4512	3012.9725	3116.3566	3117.6863	3510.7117	3796.9301
ON=C1CNCC1=O	ON=C1CNCC1=O	
InChI=1S/C4H6N2O2/c7-4-2-5-1-3(4)6-8/h5,8H,1-2H2	InChI=1S/C4H6N2O2/c7-4-2-5-1-3(4)6-8/h5,8H,1-2H2
