12
gdb 4894	5.21605	1.52316	1.22107	4.4409	52.73	-0.2339	0.0217	0.2556	917.4141	0.083119	-455.645111	-455.638102	-455.637158	-455.677036	24.403	
C	-0.0440782329	 1.3918779941	-0.0695691487	-0.261122
O	 0.4871057965	 0.0701098327	 0.1391484678	-0.261832
C	 0.7896853289	-0.6106339756	-0.955025869	 0.393557
C	 0.539842847	-1.862913322	-1.3299854136	-0.172406
O	 1.2013808214	-2.0949254099	-2.5337961367	-0.211303
C	 1.8308179529	-0.9437687704	-2.89024476	 0.517532
O	 2.4756922628	-0.7650932818	-3.8712495456	-0.367279
O	 1.5906979847	-0.0054911464	-1.9115487814	-0.251052
H	 0.6766300857	 2.019118375	-0.5997226902	 0.157419
H	-0.9809664435	 1.3403355668	-0.6344486097	 0.136891
H	-0.2301621232	 1.794962592	 0.9253790163	 0.150994
H	-0.0160654002	-2.6709478046	-0.8940216192	 0.168602
68.2616	139.9219	165.4113	237.1601	378.3591	428.4909	574.787	618.4068	666.1325	713.5798	766.1794	779.1419	933.007	940.4383	1024.767	1077.1298	1127.899	1174.3144	1203.1457	1311.8929	1319.3054	1479.737	1488.0651	1501.6578	1776.0057	1945.6639	3038.6126	3120.8608	3163.9034	3322.5693
COC1=COC(=O)O1	COc1coc(=O)o1	
InChI=1S/C4H4O4/c1-6-3-2-7-4(5)8-3/h2H,1H3	InChI=1S/C4H4O4/c1-6-3-2-7-4(5)8-3/h2H,1H3
