16
gdb 3249	6.02706	2.29139	2.1072	1.5928	64.43	-0.2255	0.08	0.3055	677.7337	0.137931	-288.573089	-288.567103	-288.566159	-288.602558	23.807	
C	 0.0901389864	 1.4428014671	-0.0911754001	-0.23721
C	 1.3328695763	 0.6488032272	-0.0010207493	-0.11047
N	-0.034499323	-0.018543799	 0.0638406573	-0.124759
C	 0.2342172935	-0.6008023458	-1.3038445023	-0.24509
C	 1.644941548	-0.0003644167	-1.3269415532	 0.3845
C	 2.4667376903	 0.5248131896	-2.4678728267	-0.327923
C	 2.911441396	-0.7036285046	-1.7022160165	-0.332979
H	-0.2300055827	 1.9872911179	 0.7922217127	 0.118931
H	-0.1882653156	 1.9019509051	-1.0380555813	 0.109872
H	 1.9935874502	 0.6797969921	 0.8604966837	 0.094197
H	 0.2161900333	-1.6925661319	-1.2545817324	 0.113141
H	-0.4732817815	-0.2605580899	-2.0689159351	 0.101159
H	 2.0855574488	 0.3869010243	-3.4746801029	 0.113311
H	 3.0186811049	 1.4478552668	-2.3218215226	 0.11389
H	 3.7649312696	-0.6078375991	-1.0381626707	 0.115357
H	 2.8348174954	-1.6703035731	-2.1905166504	 0.114072
150.0382	257.4024	290.423	427.4624	480.2518	549.3826	740.0342	766.736	784.1728	834.1912	865.6403	900.6494	924.9185	958.6404	999.7123	1024.7599	1049.9299	1054.6283	1076.5371	1090.1732	1109.4829	1127.8984	1187.3933	1196.3999	1219.9801	1260.2868	1284.8235	1315.7978	1416.9687	1464.2584	1488.8824	1503.4663	1508.2816	3033.325	3096.8698	3098.5807	3120.6118	3126.0208	3152.3556	3193.6074	3199.109	3214.8075
C1C2N1CC21CC1	C1[C@H]2N1CC12CC1	
InChI=1S/C6H9N/c1-2-6(1)4-7-3-5(6)7/h5H,1-4H2	InChI=1S/C6H9N/c1-2-6(1)4-7-3-5(6)7/h5H,1-4H2/t5-,7?/m1/s1
