19
gdb 2727	13.92568	0.83027	0.80335	0.136	66.22	-0.2497	0.0864	0.3361	1453.3778	0.169159	-348.035847	-348.026493	-348.025549	-348.070595	30.882	
C	-0.8280309753	 1.3175112234	-0.0056155719	-0.384937
C	 0.0055669639	 0.0518559487	 0.0988658867	-0.02454
O	 0.6108335607	-0.1952596588	-1.1536076416	-0.246038
C	 1.4106628926	-1.3540419366	-1.166417077	-0.066978
C	 1.9943328774	-1.498740693	-2.5633469695	-0.067676
O	 2.7944968335	-2.6581529041	-2.5752601101	-0.232555
C	 3.3934034752	-2.8970089242	-3.8252698361	-0.224289
H	-0.1995638977	 2.1694465593	-0.2803984972	 0.12612
H	-1.6035320469	 1.204427778	-0.7685615535	 0.126115
H	-1.3110557056	 1.536131857	 0.9514352527	 0.114249
H	 0.7784435149	 0.1598885302	 0.8789533401	 0.085658
H	-0.6253939244	-0.8049860385	 0.3908280144	 0.085658
H	 2.2275999604	-1.2846927912	-0.429713639	 0.093881
H	 0.8200683557	-2.2507833554	-0.9175310001	 0.093883
H	 1.1784795371	-1.5693551301	-3.301247335	 0.093774
H	 2.5860874504	-0.6028497751	-2.8130117011	 0.093763
H	 2.6420948831	-3.0381965605	-4.6186475292	 0.103929
H	 4.05583951	-2.0697480136	-4.1263744614	 0.103939
H	 3.9874186749	-3.8098555453	-3.7355225111	 0.126043
56.366	72.8942	108.0064	118.5439	142.2732	233.3311	247.079	266.02	335.363	453.2118	520.7969	819.789	836.2574	894.6924	996.8536	1049.9226	1078.6833	1148.4112	1158.6409	1174.6864	1176.9142	1183.2361	1200.388	1234.181	1235.5026	1290.6775	1295.8763	1354.8872	1400.0078	1419.9294	1459.105	1483.3194	1483.8024	1484.9294	1499.4644	1504.8995	1517.4684	1533.6211	1540.8043	2951.4555	2960.8735	2969.7247	2974.448	2977.3008	2985.3766	3011.1969	3013.3767	3044.7225	3112.9742	3119.1485	3120.8644
CCOCCOC	CCOCCOC	
InChI=1S/C5H12O2/c1-3-7-5-4-6-2/h3-5H2,1-2H3	InChI=1S/C5H12O2/c1-3-7-5-4-6-2/h3-5H2,1-2H3
