13
gdb 4651	7.28525	1.27375	1.08556	2.1011	70.48	-0.193	0.0018	0.1948	1015.7922	0.095463	-361.457481	-361.450171	-361.449226	-361.488745	27.6	
N	 0.0961539265	 1.3739303627	 0.1551129935	-0.598968
C	-0.05963044	 0.0011758069	 0.0501370054	 0.41302
C	-1.1378452596	-0.8279711226	 0.026376366	-0.412213
C	-0.5985773726	-2.1714187101	 0.0072597133	 0.16187
C	 0.7577602464	-2.0346480731	 0.0159222616	-0.139463
O	 1.0963779848	-0.7100685856	 0.0446233412	-0.169917
C	-1.3279009968	-3.3822225844	-0.0208703987	 0.228217
C	-1.9672309119	-4.4025294606	-0.0457147403	-0.435606
H	 0.9273410329	 1.7114369691	-0.3136629471	 0.25812
H	-0.7210232126	 1.8857312436	-0.1465599983	 0.258788
H	-2.1789821407	-0.5521680592	 0.0220799906	 0.108044
H	 1.5740332774	-2.7349068743	 0.0005297246	 0.14245
H	-2.5238736239	-5.3061047324	-0.0665331719	 0.185657
137.4025	147.3814	184.6614	294.712	382.5185	472.3164	524.8163	545.6703	557.8769	628.8675	649.1775	661.6781	686.8356	715.1663	753.0868	769.0566	961.3626	996.5998	1092.4949	1157.8654	1189.7936	1251.6203	1313.5207	1432.4487	1587.78	1622.9525	1674.4866	2234.9204	3273.9195	3298.0678	3505.3955	3548.2848	3650.479
NC1=CC(=CO1)C#C	Nc1cc(co1)C#C	
InChI=1S/C6H5NO/c1-2-5-3-6(7)8-4-5/h1,3-4H,7H2	InChI=1S/C6H5NO/c1-2-5-3-6(7)8-4-5/h1,3-4H,7H2
