12
gdb 681	7.92922	3.48635	2.82936	3.2426	50.48	-0.2407	-0.0079	0.2329	478.8605	0.097002	-269.221561	-269.216562	-269.215618	-269.249768	18.866	
O	 0.0148510318	 0.0371355134	-0.0912862401	-0.312648
C	 0.0239384378	 1.2271534006	 0.0449810826	 0.417598
C	-1.1114137196	 2.2873544965	 0.1393579908	-0.355051
C	-0.0216475507	 3.3569459559	-0.0337336581	-0.039945
C	 0.9411000003	 3.2657445643	 1.0925319502	-0.272873
C	 1.091466103	 2.274220441	-0.0587226822	-0.159223
H	-1.7821031618	 2.1815177945	-0.7182010542	 0.133053
H	-1.7051244557	 2.3291285812	 1.0571702519	 0.120103
H	-0.090081468	 4.2171580576	-0.6855168455	 0.107199
H	 1.7283976047	 4.0117844761	 1.1253139848	 0.127707
H	 0.613698927	 2.9209722833	 2.0697327211	 0.124069
H	 2.0098870214	 2.2111742456	-0.6286144013	 0.110011
155.8196	389.4626	449.3664	552.4304	638.4552	751.8559	783.5768	857.2353	900.6748	935.554	965.2256	998.3024	1020.5012	1069.3236	1081.7777	1112.8968	1137.4915	1196.3881	1216.0767	1292.6269	1330.1716	1456.899	1496.355	1884.4038	3057.2039	3112.1397	3118.1276	3198.1405	3204.0608	3216.3598
O=C1CC2CC12	O=C1C[C@H]2C[C@@H]12	
InChI=1S/C5H6O/c6-5-2-3-1-4(3)5/h3-4H,1-2H2	InChI=1S/C5H6O/c6-5-2-3-1-4(3)5/h3-4H,1-2H2/t3-,4-/m1/s1
