15
gdb 863	6.44142	2.04316	1.57601	1.4242	64.74	-0.1766	0.0551	0.2317	779.2426	0.126563	-304.737186	-304.729942	-304.728998	-304.768244	26.483	
C	-0.0102866792	 1.4932881813	 0.0745502449	-0.50329
C	-0.0170106717	 0.0057202317	-0.0455953554	 0.298284
C	-0.0353381115	-0.8157125052	-1.1487356509	-0.21073
C	-0.0181027083	-2.16923198	-0.6965977156	-0.202828
C	 0.0000179172	-2.1384230242	 0.6788868221	 0.259649
N	-0.0335389947	-3.1403829886	 1.6752969875	-0.611185
N	-0.0000868123	-0.8175462498	 1.0619149564	-0.302191
H	 0.887592473	 1.8673789646	 0.5836739217	 0.121338
H	-0.0351582189	 1.9435604308	-0.9206835162	 0.13434
H	-0.8785357863	 1.8731301126	 0.6289680522	 0.120961
H	-0.0450022685	-0.4788020258	-2.1748040538	 0.08266
H	-0.0054875167	-3.0596194437	-1.3070433787	 0.076924
H	-0.4224087741	-3.9971245682	 1.3000163909	 0.244263
H	 0.8941346316	-3.3609946876	 2.0284106196	 0.240338
H	-0.0699128796	-0.5200238677	 2.0201539353	 0.251467
111.2327	120.5971	192.7963	269.4679	305.6564	426.3548	479.6672	614.0655	637.5811	651.3058	709.8809	767.6738	806.0652	834.9555	983.9909	1002.1961	1026.7126	1062.567	1063.1794	1166.4856	1211.6093	1276.5622	1297.772	1417.3131	1429.9338	1462.8147	1479.5029	1502.1074	1555.1721	1634.0508	1659.2308	3008.6885	3049.2831	3117.9746	3232.9106	3248.4918	3480.4401	3587.2629	3671.2871
CC1=CC=C(N)N1	Cc1ccc(N)[nH]1	
InChI=1S/C5H8N2/c1-4-2-3-5(6)7-4/h2-3,7H,6H2,1H3	InChI=1S/C5H8N2/c1-4-2-3-5(6)7-4/h2-3,7H,6H2,1H3
