17
gdb 1893	5.25046	2.0867	1.65872	1.131	60.71	-0.251	0.0914	0.3423	795.1278	0.14806	-346.869123	-346.861667	-346.860723	-346.900929	26.742	
C	-0.3179173127	 1.5828069047	 0.0606537697	-0.413469
C	 0.1907216911	 0.1542459161	 0.0377341979	 0.121695
C	 1.0314293292	-0.2341661514	-1.1985937505	-0.095003
O	 2.0771705012	-1.0476381844	-0.6816668324	-0.270954
C	 1.8821608957	-1.1629094141	 0.722729006	 0.234298
C	 3.2103016604	-1.1661070219	 1.4450975799	-0.402891
O	 1.1094510397	-0.0516706287	 1.1060341564	-0.261483
H	 0.5169399152	 2.284534571	-0.0262615247	 0.128205
H	-1.0090157718	 1.7551227612	-0.7705028511	 0.11984
H	-0.8485197756	 1.7882670292	 0.9941755238	 0.13048
H	-0.6525476393	-0.5483268955	 0.1434798966	 0.070898
H	 0.4438731661	-0.7865051439	-1.9421076027	 0.100212
H	 1.4672035871	 0.6494852927	-1.6828860397	 0.099594
H	 1.3176578956	-2.0934731667	 0.9273447827	 0.056491
H	 3.7419370147	-0.2338105706	 1.2401716691	 0.128556
H	 3.0515154597	-1.2625218621	 2.5223213628	 0.125214
H	 3.8167056436	-2.0077697454	 1.1015340062	 0.128316
60.6011	120.8029	211.5652	222.8543	282.0123	362.1055	458.2033	493.9537	640.3364	708.4126	841.0422	871.8795	891.5982	947.5636	958.6886	1055.7167	1105.7389	1116.6514	1136.7625	1162.3334	1166.0365	1188.6394	1228.1453	1332.0647	1362.0486	1378.0544	1394.4281	1405.031	1412.0768	1445.4343	1484.262	1485.4049	1487.1721	1499.0819	1529.9081	2910.1564	2962.1517	3011.6386	3042.6994	3052.3373	3053.7791	3115.8083	3123.1335	3133.2539	3139.0443
CC1COC(C)O1	C[C@H]1CO[C@@H](C)O1	
InChI=1S/C5H10O2/c1-4-3-6-5(2)7-4/h4-5H,3H2,1-2H3	InChI=1S/C5H10O2/c1-4-3-6-5(2)7-4/h4-5H,3H2,1-2H3/t4-,5+/m0/s1
