13
gdb 2763	4.03936	2.53222	1.78946	2.6365	55.74	-0.2541	0.0219	0.2759	697.8529	0.099905	-344.382663	-344.375474	-344.374529	-344.414103	25.302	
O	 0.1824219081	 1.3628041781	-0.2780645843	-0.412033
C	 0.1028708781	 0.004828732	 0.0438576185	 0.075739
C	-0.0814857785	-0.4035530485	 1.5217015897	-0.104355
O	-1.2524917282	-1.1815769477	 1.1923022381	-0.272222
C	-1.3042717794	-0.6366645933	-0.1528353577	-0.111829
C	-2.4112192569	 0.2795150781	-0.3679046514	 0.389288
C	-3.3421525283	 1.0164324159	-0.5522960963	-0.467454
H	 1.1085361095	 1.6197714164	-0.3094020717	 0.292796
H	 0.8764059415	-0.5837713606	-0.4633425859	 0.086354
H	 0.6996971948	-1.0154119989	 1.9856926737	 0.102547
H	-0.3209488459	 0.4527818599	 2.1651167917	 0.111826
H	-1.3398065597	-1.4441052964	-0.8939471228	 0.108385
H	-4.159796395	 1.675147995	-0.7116612517	 0.200959
74.8072	139.5768	162.8203	227.0315	338.8369	418.4426	521.6989	593.451	625.3743	673.9933	741.7994	830.5284	900.108	973.2644	1011.283	1058.3747	1077.8028	1157.2549	1177.6696	1202.0077	1259.6091	1302.7234	1334.0669	1355.1039	1445.802	1514.4489	2236.7417	3017.8935	3025.5521	3039.4599	3077.5576	3504.1571	3833.803
OC1COC1C#C	O[C@H]1CO[C@H]1C#C	
InChI=1S/C5H6O2/c1-2-5-4(6)3-7-5/h1,4-6H,3H2	InChI=1S/C5H6O2/c1-2-5-4(6)3-7-5/h1,4-6H,3H2/t4-,5-/m0/s1
