17
gdb 4494	3.59632	1.67021	1.15697	1.6954	73.46	-0.1712	0.0496	0.2208	1032.4879	0.141147	-363.90816	-363.899089	-363.898145	-363.941976	32.008	
C	 0.0000795216	 1.4842636853	 0.0611086146	-0.503532
C	 0.0215877664	-0.0045758476	-0.045469862	 0.328226
C	 0.0239634373	-0.8281800993	-1.1526204278	-0.369094
C	 0.0508324423	-2.1710791264	-0.6798075499	 0.262693
O	 0.0621697429	-3.3256200097	-1.4184370638	-0.45726
C	 0.0642184077	-2.1541572127	 0.6957006105	 0.218992
C	 0.0918412699	-3.2720598128	 1.6802541379	-0.51319
N	 0.045678437	-0.8159339803	 1.0590524016	-0.355846
H	 0.8884906642	 1.8782401659	 0.5715223032	 0.124065
H	-0.0284619501	 1.9281681985	-0.93669745	 0.134691
H	-0.8779761331	 1.8494960896	 0.6092854268	 0.123753
H	 0.0082896176	-0.5014143943	-2.1824830264	 0.079646
H	 0.0491753749	-3.0873998244	-2.3490433418	 0.293054
H	 0.9819625112	-3.246361138	 2.3231213112	 0.117721
H	-0.7863586965	-3.2753916521	 2.3398065735	 0.117741
H	 0.1023495633	-4.2219108454	 1.1409007222	 0.149237
H	 0.0498265833	-0.4886557362	 2.0093425804	 0.249104
66.1186	89.9332	142.4197	171.8848	236.8579	238.066	276.1808	326.1951	414.8496	479.2501	587.6617	638.0773	642.4273	675.9262	745.0484	801.2816	971.074	1020.386	1026.0244	1055.8956	1066.3935	1107.493	1181.3737	1244.6769	1295.6252	1335.9215	1413.3713	1419.5389	1446.3083	1480.2871	1483.6444	1491.0027	1506.0743	1510.5741	1566.1035	1687.3685	3003.9437	3011.7973	3042.3867	3053.4149	3120.3947	3124.5468	3230.3395	3676.5847	3851.8619
CC1=CC(O)=C(C)N1	Cc1cc(O)c(C)[nH]1	
InChI=1S/C6H9NO/c1-4-3-6(8)5(2)7-4/h3,7-8H,1-2H3	InChI=1S/C6H9NO/c1-4-3-6(8)5(2)7-4/h3,7-8H,1-2H3
