19
gdb 3592	5.08489	1.71064	1.4544	0.1118	72.	-0.2431	0.0911	0.3342	908.9304	0.171735	-273.759338	-273.751744	-273.7508	-273.791146	28.632	
C	-0.1192013132	 1.5323782895	-0.0886269102	-0.402062
C	 0.0105188006	 0.0297192137	 0.0332809493	 0.004928
C	 1.3326980002	-0.6614672997	-0.2060406089	-0.308447
C	 0.7356394931	-0.6381808128	 1.1832824441	 0.004592
C	 1.3820317021	 0.1281460848	 2.2946931172	 0.02717
C	 0.7437902176	 0.1676858563	 3.6627398824	-0.268447
C	 2.0185111988	-0.610873429	 3.4473320154	-0.272233
H	 0.7931509924	 2.0478320023	 0.2251908522	 0.113855
H	-0.3154423872	 1.8224296281	-1.1269114595	 0.113749
H	-0.9424489533	 1.9146905866	 0.5253347643	 0.116432
H	-0.8642217449	-0.5103262219	-0.3216425553	 0.078507
H	 1.3519464901	-1.5961409493	-0.7562915787	 0.105057
H	 2.1977741569	-0.0282604736	-0.3821694019	 0.105265
H	 0.2952023493	-1.5757266431	 1.5171547563	 0.072134
H	 1.8918324736	 1.0366641736	 1.9881725004	 0.076453
H	 0.7909888507	 1.0902918342	 4.2309253519	 0.107809
H	-0.1739967983	-0.3935363153	 3.8059203743	 0.108493
H	 1.9562973528	-1.694404976	 3.4454514119	 0.109034
H	 2.9393423888	-0.2217011985	 3.8677985148	 0.107711
60.8175	146.8893	198.6997	223.3952	303.3648	354.787	414.9269	532.9372	736.3264	768.4808	801.9005	824.8115	849.7172	889.0551	914.7388	940.741	975.5436	1034.7602	1038.7902	1058.7358	1070.3172	1074.6692	1111.0984	1128.8154	1149.8392	1196.8432	1197.9909	1214.3545	1225.9671	1258.5892	1320.8192	1397.4342	1420.6182	1450.6518	1469.4708	1493.1283	1493.984	1502.5222	1512.2001	3028.8154	3086.2688	3100.2745	3116.5472	3121.4497	3126.7449	3130.8185	3133.3986	3149.9066	3204.3654	3205.2445	3220.1701
CC1CC1C1CC1	C[C@H]1C[C@H]1C1CC1	
InChI=1S/C7H12/c1-5-4-7(5)6-2-3-6/h5-7H,2-4H2,1H3	InChI=1S/C7H12/c1-5-4-7(5)6-2-3-6/h5-7H,2-4H2,1H3/t5-,7+/m0/s1
