13
gdb 1389	4.78166	1.41995	1.14805	5.0112	62.73	-0.2613	0.0048	0.2661	999.9589	0.100789	-303.472917	-303.464624	-303.463679	-303.507239	27.312	
C	-0.0076656205	 1.4885811106	 0.018414489	-0.498159
C	 0.0074305317	 0.0337976265	-0.0048027699	 0.048139
C	 0.0306944497	-1.1695303538	-0.0297094754	 0.115083
C	 0.00060628	-2.6394130061	-0.0387946558	-0.30252
N	-1.3397609042	-3.248611818	 0.0012708841	-0.484887
C	 0.7252962544	-3.1590968693	-1.2172216672	 0.318652
N	 1.2954986598	-3.5566256695	-2.1390959048	-0.318739
H	 1.0109013912	 1.8909332647	 0.0154054722	 0.160259
H	-0.5287090681	 1.8924336823	-0.8559934208	 0.157693
H	-0.513003048	 1.8655355521	 0.9139813501	 0.15426
H	 0.5411800514	-3.0102495333	 0.8428318546	 0.16024
H	-1.8083570663	-2.9204391636	 0.8414832966	 0.243505
H	-1.883770691	-2.8969604027	-0.7825103625	 0.246474
14.5471	87.89	133.7503	207.8268	241.9076	299.5419	319.8523	395.6344	490.4031	541.6454	601.7086	764.8627	878.6119	920.7091	1051.4563	1053.364	1111.7168	1158.5537	1195.0265	1312.1687	1389.9432	1413.8771	1475.4791	1476.1349	1660.7208	2367.0881	2371.5638	3021.7504	3032.8379	3096.2223	3097.621	3487.9113	3569.0983
CC#CC(N)C#N	CC#C[C@@H](N)C#N	
InChI=1S/C5H6N2/c1-2-3-5(7)4-6/h5H,7H2,1H3	InChI=1S/C5H6N2/c1-2-3-5(7)4-6/h5H,7H2,1H3/t5-/m1/s1
