21
gdb 1687	3.87789	1.6728	1.25833	1.3709	70.78	-0.2616	0.0786	0.3403	1008.5876	0.192855	-312.12438	-312.114895	-312.11395	-312.158274	34.23	
C	-0.0188715455	 1.5277766094	 0.0599468453	-0.394479
C	-0.0287153651	-0.0078186764	-0.0128807236	 0.042448
C	-1.4829119414	-0.5066089093	 0.0438541941	-0.396313
C	 0.7397208407	-0.5311944056	-1.253387272	 0.059245
C	 2.1751078491	 0.0126265482	-1.3369009041	-0.407197
C	 0.7718342216	-2.0636898684	-1.2996005664	-0.086669
O	 1.4109907589	-2.4636512393	-2.5063681945	-0.422675
H	 0.9907145101	 1.9339789085	 0.154888016	 0.116162
H	-0.4735955376	 1.9648135872	-0.8375916751	 0.110825
H	-0.5959308407	 1.8742644608	 0.9235354169	 0.107032
H	 0.4924606272	-0.3857314127	 0.8801810491	 0.067035
H	-2.0277277917	-0.2281989387	-0.8664479684	 0.112823
H	-1.5557989258	-1.5911531901	 0.1577120139	 0.112353
H	-2.008668728	-0.0562947642	 0.8922271565	 0.10821
H	 0.1952982253	-0.2018103608	-2.1508323639	 0.075291
H	 2.713871858	-0.4819173028	-2.1471753965	 0.134777
H	 2.1958489842	 1.0889519059	-1.5226751131	 0.11042
H	 2.7190935399	-0.1781190183	-0.4029720207	 0.102406
H	 1.3176511709	-2.4429424734	-0.4182309156	 0.078775
H	-0.2462396569	-2.4728188526	-1.2588156447	 0.084596
H	 1.4433827567	-3.4241169174	-2.5229656634	 0.284937
45.509	100.6085	186.3852	208.7796	232.162	242.6206	254.5171	321.4741	363.7613	373.8516	413.943	472.6754	504.3968	795.4062	872.5969	926.0119	929.7618	945.1151	966.5689	991.5269	1060.2924	1070.4159	1143.247	1167.7622	1187.6629	1193.7364	1251.2873	1272.1616	1307.6374	1347.1908	1360.8529	1379.2016	1399.0556	1402.9339	1421.9082	1457.0222	1486.9101	1491.0484	1500.4666	1504.973	1509.6869	1519.5773	1524.2484	2952.8644	2984.0717	3002.7393	3022.7696	3026.7999	3031.3184	3033.448	3087.2223	3094.717	3106.1266	3111.8575	3119.6194	3137.2752	3835.572
CC(C)C(C)CO	CC(C)[C@@H](C)CO	
InChI=1S/C6H14O/c1-5(2)6(3)4-7/h5-7H,4H2,1-3H3	InChI=1S/C6H14O/c1-5(2)6(3)4-7/h5-7H,4H2,1-3H3/t6-/m0/s1
