15
gdb 1647	5.06989	1.88432	1.39759	0.6274	60.01	-0.2269	-0.0558	0.1711	857.6672	0.123611	-341.863083	-341.854591	-341.853647	-341.896885	28.573	
C	-0.049424452	 1.422891963	-0.0436949678	-0.307805
N	 0.1442236009	-0.0062513406	 0.0185283912	-0.280764
C	 0.7135672297	-0.6145835477	 1.0847888952	 0.240569
N	 1.1186419994	 0.0444069919	 2.1121083318	-0.533781
C	 0.8013109254	-2.1299099032	 0.8992306336	 0.362893
C	 1.4170524258	-2.9469540106	 2.0132659142	-0.500651
O	 0.3832901449	-2.6378658778	-0.1186460545	-0.310859
H	 0.9061706446	 1.9541458051	 0.0354852641	 0.138608
H	-0.5233192025	 1.6776819147	-0.9934888272	 0.121286
H	-0.6838169267	 1.7711001312	 0.7796869153	 0.138606
H	-0.1391837682	-0.6097496387	-0.7355249249	 0.261221
H	 1.5168262237	-0.5789088318	 2.8091699986	 0.213519
H	 0.8585659366	-2.8117494757	 2.9454758831	 0.154173
H	 1.4052909676	-3.9991855057	 1.72914068	 0.148811
H	 2.4478093208	-2.6286090942	 2.2014136573	 0.154173
30.0256	87.4161	111.7625	168.0122	205.4798	323.2998	385.4498	414.1416	447.2408	506.8056	606.3279	703.501	811.4391	814.9429	943.6253	1039.6569	1040.1845	1162.1533	1184.6654	1189.1979	1213.8785	1332.8772	1382.047	1455.9407	1467.9287	1471.426	1472.6694	1514.1128	1560.534	1697.6894	1792.3023	3025.6108	3043.6769	3073.3019	3106.5367	3131.7801	3158.5858	3528.8829	3653.7311
CNC(=N)C(C)=O	CNC(=N)C(=O)C	
InChI=1S/C4H8N2O/c1-3(7)4(5)6-2/h1-2H3,(H2,5,6)	InChI=1S/C4H8N2O/c1-3(7)4(5)6-2/h1-2H3,(H2,5,6)
