16
gdb 3049	8.77999	1.21604	1.13227	3.7887	62.81	-0.2472	0.0338	0.281	1026.5195	0.137255	-325.789564	-325.782058	-325.781114	-325.822285	26.35	
O	-0.162167635	 0.4018785572	-0.7844443992	-0.322803
C	 0.0321056208	 1.2439074199	 0.0668758306	 0.154266
N	 1.2385049085	 1.5510720687	 0.6126508375	-0.270876
C	 2.4882467083	 0.9263237888	 0.2028264324	-0.174512
C	 3.5351507096	 1.9476018359	-0.1779924498	 0.02212
C	 4.3743187182	 2.606575557	 0.893255073	-0.267531
C	 4.9959258903	 1.6072505912	-0.0503029828	-0.26702
H	-0.779623965	 1.8642255775	 0.497675943	 0.070908
H	 1.2779870875	 2.2898620688	 1.2971668569	 0.245886
H	 2.8740845447	 0.2871587332	 1.0096031153	 0.102789
H	 2.2384684837	 0.2754499721	-0.638666924	 0.150648
H	 3.2557304642	 2.5738476054	-1.020665104	 0.09484
H	 4.6304348796	 3.6538132595	 0.7787945691	 0.116376
H	 4.2226215845	 2.2967940617	 1.9229589367	 0.10969
H	 5.2568177882	 0.6315842258	 0.3466391398	 0.116314
H	 5.6747679021	 1.9700454372	-0.8134037544	 0.118906
33.0413	87.0596	175.3992	232.1259	298.3668	372.5614	450.4099	546.2756	740.819	779.016	828.0823	845.9624	906.9738	930.8357	1007.1324	1031.7809	1053.0428	1062.0062	1083.759	1140.606	1180.7943	1197.0566	1212.7229	1226.3252	1286.5669	1353.3454	1425.1534	1431.5118	1469.5651	1494.097	1508.2521	1529.8504	1806.6606	2929.1787	3005.7784	3108.7645	3127.3927	3136.142	3149.6347	3208.2696	3224.2981	3631.5461
O=CNCC1CC1	O=CNCC1CC1	
InChI=1S/C5H9NO/c7-4-6-3-5-1-2-5/h4-5H,1-3H2,(H,6,7)	InChI=1S/C5H9NO/c7-4-6-3-5-1-2-5/h4-5H,1-3H2,(H,6,7)
