12
gdb 726	9.07138	3.47643	2.55327	2.6766	51.32	-0.2317	0.026	0.2577	501.8132	0.09876	-265.44066	-265.435164	-265.43422	-265.469825	19.333	
C	-0.021252041	 1.5048795352	 0.0613922228	-0.502665
C	-0.0028567173	 0.0164214752	-0.0654908897	 0.369922
C	-0.0626108307	-0.817850616	-1.1654577804	-0.286269
C	 0.0001021374	-2.125829661	-0.6380340001	-0.002728
N	 0.0905387295	-2.1226854475	 0.6876201645	-0.229215
N	 0.087101234	-0.8118894023	 1.0085409491	-0.237374
H	 0.8999627652	 1.8875367135	 0.5160263677	 0.136348
H	-0.1196603075	 1.9626128057	-0.9249014712	 0.143456
H	-0.8605439295	 1.8518584695	 0.675201618	 0.135675
H	-0.1399550121	-0.5161590295	-2.1976965931	 0.097853
H	-0.01802421	-3.0661556287	-1.1695797769	 0.107547
H	 0.1483535618	-0.5507752142	 1.9783005394	 0.26745
62.4644	255.0266	326.6565	513.5253	658.1625	660.7334	691.084	799.7841	892.2234	936.4966	990.939	1034.6667	1063.0333	1063.5472	1136.88	1239.245	1302.2565	1369.698	1412.9464	1438.4865	1480.1509	1483.244	1512.6604	1612.2918	3029.184	3078.5088	3130.011	3242.1738	3266.3547	3668.3081
CC1=CC=NN1	Cc1ccn[nH]1	
InChI=1S/C4H6N2/c1-4-2-3-5-6-4/h2-3H,1H3,(H,5,6)	InChI=1S/C4H6N2/c1-4-2-3-5-6-4/h2-3H,1H3,(H,5,6)
