19
gdb 1914	5.56538	2.00293	1.76351	0.3049	71.49	-0.2416	0.0919	0.3336	806.6267	0.171642	-273.765901	-273.758554	-273.75761	-273.7966	28.533	
C	-0.1317538294	 1.5741791303	 0.0599697751	-0.403228
C	 0.0698233695	 0.0634160723	 0.0373754688	 0.046364
C	 1.1493081155	-0.5527765813	-0.9205995521	-0.308757
C	 1.7922775452	-1.2708695653	 0.2787109754	 0.380925
C	 2.3271608753	-2.6734939057	 0.2443306126	-0.496735
C	 2.2328761003	-0.2394736828	 1.2791594221	-0.324204
C	 0.7742614027	-0.6172441925	 1.2214118737	-0.104237
H	 0.8069637301	 2.1053662898	 0.2484043645	 0.113009
H	-0.5279085671	 1.9321416581	-0.89705408	 0.110478
H	-0.8404540348	 1.8651612474	 0.8435101465	 0.111621
H	-0.8926899356	-0.4245666981	-0.147360419	 0.070198
H	 0.716910023	-1.2361026055	-1.6563672407	 0.095636
H	 1.7949159303	 0.1593667093	-1.4475099714	 0.087635
H	 3.2548087691	-2.7327637727	-0.3388761722	 0.116722
H	 2.5499189075	-3.0385869081	 1.2526422686	 0.114443
H	 1.6083131412	-3.3653788636	-0.2105446935	 0.112434
H	 2.7690950314	-0.6286891584	 2.1397698131	 0.103825
H	 2.5747880346	 0.7425478487	 0.9589286791	 0.099502
H	 0.2730718612	-1.044620452	 2.0834882995	 0.07437
145.3648	206.9741	220.934	227.3538	324.7299	359.3445	403.7686	500.2602	596.2549	690.8517	794.5827	827.2	862.2115	899.4678	945.8127	970.0951	977.9598	1008.3924	1019.3884	1066.5007	1076.8938	1102.3674	1121.025	1148.2823	1188.9881	1238.9714	1253.2249	1275.943	1308.741	1369.0101	1391.659	1411.483	1425.6501	1481.3703	1486.4146	1493.8289	1496.9643	1498.9427	1510.6888	3015.3664	3025.8117	3034.1406	3044.1926	3071.4077	3089.3943	3090.7151	3092.8274	3098.0387	3102.62	3161.9075	3187.871
CC1CC2(C)CC12	C[C@H]1C[C@@]2(C)C[C@@H]12	
InChI=1S/C7H12/c1-5-3-7(2)4-6(5)7/h5-6H,3-4H2,1-2H3	InChI=1S/C7H12/c1-5-3-7(2)4-6(5)7/h5-6H,3-4H2,1-2H3/t5-,6-,7-/m0/s1
