12
gdb 1455	8.49953	1.55421	1.32492	4.8191	49.43	-0.2648	-0.019	0.2458	847.1845	0.089124	-397.707881	-397.700373	-397.699429	-397.740254	24.238	
C	-0.0868682334	 1.3769332855	 0.1366674427	-0.238015
O	 0.0281711096	-0.0412097968	-0.0370514465	-0.267254
C	 0.6676812992	-0.417699162	-1.1689282519	 0.548831
O	 1.1209873858	 0.3229804378	-1.9936256507	-0.353968
N	 0.6963746557	-1.8133092539	-1.1890064811	-0.393015
C	 1.2549027972	-2.6264079618	-2.1674003389	 0.166185
O	 1.8104867176	-2.2656390979	-3.1665928859	-0.252265
H	 0.9015715009	 1.8402339851	 0.1828624169	 0.147949
H	-0.6477679364	 1.8213588832	-0.6889457252	 0.14802
H	-0.6182266577	 1.5149037081	 1.0780953503	 0.137283
H	 0.2601605882	-2.2687934031	-0.4009982031	 0.26728
H	 1.1145629335	-3.6915959842	-1.8934863365	 0.088968
65.2591	95.5805	150.806	171.4604	245.6603	300.0468	404.9094	610.4983	623.4693	785.0836	814.0015	960.9879	1030.732	1035.0384	1168.4697	1182.9985	1214.1416	1226.7298	1446.6194	1468.5414	1480.9715	1497.0847	1520.1611	1823.593	1892.2985	2932.3395	3055.3019	3132.0481	3163.1155	3622.9913
COC(=O)NC=O	COC(=O)NC=O	
InChI=1S/C3H5NO3/c1-7-3(6)4-2-5/h2H,1H3,(H,4,5,6)	InChI=1S/C3H5NO3/c1-7-3(6)4-2-5/h2H,1H3,(H,4,5,6)
