19
gdb 3505	5.84921	1.79726	1.75075	0.1306	71.76	-0.2881	0.0958	0.3839	827.7818	0.173231	-273.735646	-273.728917	-273.727973	-273.766326	26.266	
C	-0.0546851658	 1.564775574	-0.0024423807	-0.371987
C	-0.1922820023	 0.0384892705	-0.0715141689	-0.234714
C	 0.6217746988	-0.5634204379	-1.2098367431	 0.090401
C	 2.1793485961	-0.7233711716	-1.1376520223	-0.045455
C	 1.9690419383	-1.9389680155	-0.1875092305	-0.220444
C	 0.9077267049	-2.0975305898	-1.3166775895	-0.062465
C	 2.0430487904	-1.7309448661	-2.3158078364	-0.215816
H	 0.9822775218	 1.860126457	 0.1904321917	 0.116498
H	-0.3606898777	 2.0335458296	-0.9444543345	 0.112959
H	-0.6750500306	 1.9852051678	 0.7951814346	 0.109873
H	 0.0862010828	-0.3937040547	 0.8951284756	 0.096339
H	-1.2477621115	-0.2233151864	-0.225470512	 0.094508
H	 0.2862381939	-0.1250394083	-2.1593684301	 0.054727
H	 2.9225159994	 0.0700077114	-1.0378553174	 0.064123
H	 2.771332454	-2.682197198	-0.1751702037	 0.086394
H	 1.6135288103	-1.7415323623	 0.8247002705	 0.09088
H	 0.171830856	-2.8972178115	-1.4223875097	 0.06331
H	 1.7353323431	-1.3210019588	-3.2821692737	 0.085353
H	 2.848942058	-2.4614718395	-2.42707588	 0.085517
80.5938	180.0674	215.2854	340.6149	394.051	544.1728	566.8891	739.374	780.6436	804.8171	854.1606	876.7479	899.4835	903.7632	961.8349	1007.7056	1014.8467	1029.1787	1052.7238	1054.392	1111.648	1116.4373	1139.6198	1151.9289	1169.327	1191.3782	1216.7672	1247.9422	1249.1603	1269.7851	1296.902	1347.769	1409.7768	1429.2704	1485.1307	1499.4802	1502.7625	1510.168	1543.2466	3009.272	3020.7357	3030.2732	3045.0214	3056.9079	3067.524	3087.8381	3095.1792	3098.569	3102.444	3110.7626	3125.371
CCC1C2CC1C2	CC[C@H]1[C@H]2C[C@@H]1C2	
InChI=1S/C7H12/c1-2-7-5-3-6(7)4-5/h5-7H,2-4H2,1H3	InChI=1S/C7H12/c1-2-7-5-3-6(7)4-5/h5-7H,2-4H2,1H3/t5-,6+,7-
