15
gdb 4994	3.30094	2.3134	1.37153	2.7819	73.24	-0.2092	-0.0404	0.1687	865.6219	0.120219	-362.704541	-362.697611	-362.696666	-362.73552	26.474	
C	-0.0218820042	 1.5231143887	 0.0391631122	-0.469558
C	-0.0405458075	 0.0246063131	 0.0223379529	 0.209501
C	-1.1659899583	-0.7192513056	 0.1352480045	-0.161115
C	-1.1136368695	-2.1561598403	 0.1114606354	-0.184267
C	 0.0851129101	-2.7432426834	-0.0260563863	 0.067468
O	 1.2343967425	-2.0426689152	-0.1420877403	-0.233899
C	 1.2488177958	-0.647233342	-0.1264814945	 0.333276
N	 2.3504332574	-0.0222089557	-0.2387131887	-0.535554
H	 0.6080418683	 1.8931427203	 0.8547677319	 0.14568
H	 0.4194593732	 1.9150918243	-0.8830461857	 0.145709
H	-1.0313173232	 1.9261392236	 0.1538607379	 0.111309
H	-2.1270785085	-0.2265166351	 0.2459585076	 0.105702
H	-2.0068684146	-2.7594037921	 0.2008793803	 0.111246
H	 0.2659300395	-3.8103728574	-0.0589918615	 0.134826
H	 3.1285916688	-0.6751752232	-0.3315988456	 0.219678
120.7722	175.9253	242.8688	303.8056	390.7183	468.6829	517.1968	540.8404	563.8079	726.9892	751.667	780.5459	849.9783	887.8973	921.9831	933.16	974.3705	1016.1386	1057.7702	1071.7788	1123.7041	1191.723	1260.8067	1291.8898	1395.0595	1417.5053	1436.7955	1466.3238	1485.3902	1622.4753	1683.8186	1724.6035	3038.8325	3095.1291	3123.275	3178.3468	3212.1943	3233.5389	3491.5346
CC1=CC=COC1=N	CC1=C(OC=CC1)[NH]	
InChI=1S/C6H7NO/c1-5-3-2-4-8-6(5)7/h2-4,7H,1H3	InChI=1S/C6H8NO/c1-5-3-2-4-8-6(5)7/h2,4,7H,3H2,1H3
