12
gdb 4278	4.20826	2.0375	1.37354	5.5909	60.79	-0.2389	-0.0322	0.2066	816.7225	0.086278	-410.878529	-410.871993	-410.871049	-410.909357	24.293	
N	 0.0544345356	 1.3246910099	 0.1304395561	-0.565945
C	-0.0619657692	-0.0220775562	 0.0456393218	 0.492927
N	-1.1779163751	-0.6375865908	 0.0213176769	-0.332713
C	-1.1632269017	-2.0343782636	-0.0036801973	 0.363854
N	-2.2559614401	-2.6854076023	-0.0115290597	-0.503746
N	 0.1036138226	-2.6994945349	-0.0267791112	-0.286268
C	 1.1412734494	-1.9837911561	-0.0127032462	 0.119173
O	 1.1819330526	-0.613582572	 0.0276137309	-0.219804
H	 0.931583785	 1.7466168342	-0.1237589642	 0.274045
H	-0.7900851189	 1.849920486	-0.0256677768	 0.284023
H	-2.0337529097	-3.6812841062	-0.0340047241	 0.22332
H	 2.1480767194	-2.3907812279	-0.0304772762	 0.151133
91.2887	189.3561	334.989	364.0162	418.9463	489.0433	522.1943	553.5956	597.3019	724.4111	788.1159	793.301	889.8629	909.5187	933.73	962.08	1017.7327	1143.4409	1197.8882	1339.578	1391.8905	1412.4255	1602.4887	1675.6656	1720.53	1784.216	3188.4378	3488.4091	3609.7011	3737.4475
NC1=NC(=N)N=CO1	N[C@@H]1N=C([NH])N=CO1	
InChI=1S/C3H4N4O/c4-2-6-1-8-3(5)7-2/h1H,(H3,4,5,7)	InChI=1S/C3H5N4O/c4-2-6-1-8-3(5)7-2/h1,3-4H,5H2/t3-/m1/s1
