17
gdb 1733	4.95298	1.75372	1.60123	0.5832	69.43	-0.2594	0.0529	0.3123	841.543	0.146566	-272.54227	-272.534451	-272.533507	-272.573883	29.432	
C	 0.0240753016	 1.5760622603	 0.3006285473	-0.459722
C	-0.0111615783	 0.0781084488	 0.0749104149	 0.386143
C	-1.354851773	-0.4653141675	-0.4137740341	-0.426116
C	-1.7535294958	 0.0546334667	-1.7194637385	 0.322968
C	-2.0674944928	 0.4924106572	-2.7942196153	-0.460968
C	 1.2351040104	-0.6059963047	-0.4266838543	-0.286961
C	 0.7833170237	-0.8085090908	 1.0023076776	-0.31665
H	 1.0149819448	 1.8996752883	 0.633157011	 0.11143
H	-0.218231775	 2.1163167478	-0.6203618196	 0.131461
H	-0.7003978484	 1.8779933546	 1.0667749906	 0.112089
H	-1.3086939327	-1.5604662321	-0.4618947238	 0.123951
H	-2.1340634724	-0.2263460276	 0.3234506977	 0.126843
H	-2.3510459847	 0.8721059616	-3.744239099	 0.193892
H	 1.1239499869	-1.4330644619	-1.1200258611	 0.1132
H	 2.1151557999	 0.0029094897	-0.603949907	 0.110336
H	 1.3552663138	-0.3338679365	 1.7927397577	 0.110309
H	 0.3711653719	-1.7745852437	 1.2758274159	 0.107797
73.4018	139.8282	227.6235	316.0993	327.0942	341.3898	356.9089	384.4728	520.4964	614.4326	635.917	727.992	782.5657	871.1103	894.3169	912.8362	956.0025	976.6508	986.4151	1044.5875	1071.5011	1079.3107	1123.9108	1186.7894	1211.2979	1307.6365	1330.9295	1373.128	1420.1969	1463.1408	1472.1901	1491.4428	1501.5729	1512.7903	2235.7132	3009.5824	3025.0969	3046.9929	3088.1516	3106.8109	3125.6389	3132.2628	3203.5744	3218.6103	3506.6742
CC1(CC#C)CC1	CC1(CC#C)CC1	
InChI=1S/C7H10/c1-3-4-7(2)5-6-7/h1H,4-6H2,2H3	InChI=1S/C7H10/c1-3-4-7(2)5-6-7/h1H,4-6H2,2H3
