14
gdb 4752	6.50196	1.30223	1.09255	6.7567	72.24	-0.232	-0.0047	0.2273	1026.121	0.109133	-341.641509	-341.634252	-341.633308	-341.673432	25.997	
C	-0.0027068329	 1.4595546496	 0.0024968581	-0.339253
N	-0.0264594965	 0.0086565434	 0.0006409853	 0.019707
C	 0.0198265045	-0.7846541845	-1.1243569827	-0.070171
C	 0.0552732166	-2.0970332941	-0.7321666809	-0.278981
C	 0.0318455104	-2.1033954712	 0.6972241137	 0.155859
C	-0.015769775	-0.7808871342	 1.1094504874	-0.181554
C	 0.0429063911	-3.2357931183	 1.5466486224	 0.196148
N	 0.0534051892	-4.166909187	 2.2366030843	-0.353321
H	 1.0160059774	 1.8424761693	-0.1193780995	 0.150668
H	-0.6231906372	 1.8404043601	-0.8120138655	 0.150197
H	-0.4069659444	 1.8269542843	 0.9473187717	 0.151469
H	 0.0216932516	-0.3407322222	-2.1068999933	 0.131059
H	 0.0817175222	-2.9633311227	-1.3729864454	 0.123342
H	-0.0429200969	-0.3610638325	 2.1016776945	 0.144831
71.6562	139.9959	153.2947	225.1517	356.4039	515.3463	531.2227	575.9012	617.5756	663.9541	701.3372	705.1746	795.6484	836.0521	989.5201	1016.0902	1087.4129	1110.5917	1149.8633	1187.3553	1260.0387	1366.0938	1401.3404	1409.3076	1457.3431	1488.0544	1511.5415	1554.3396	1575.8453	2342.6277	3042.6116	3112.1956	3143.4218	3259.3003	3271.3177	3278.9725
CN1C=CC(=C1)C#N	Cn1ccc(c1)C#N	
InChI=1S/C6H6N2/c1-8-3-2-6(4-7)5-8/h2-3,5H,1H3	InChI=1S/C6H6N2/c1-8-3-2-6(4-7)5-8/h2-3,5H,1H3
