17
gdb 1537	5.22876	1.2906	1.08646	1.8599	66.44	-0.259	0.0562	0.3151	1065.1416	0.145855	-309.681686	-309.672878	-309.671934	-309.714956	31.099	
C	-0.0696280576	 1.5825513483	-0.0814190931	-0.386168
C	-0.0099138687	 0.0436592824	 0.0209998434	-0.161993
C	 0.7818134433	-0.4518900112	 1.2533956566	-0.160074
C	 2.2603886304	-0.0803126857	 1.2314325751	-0.086619
O	 2.8724739219	-0.7248029085	 2.3383155847	-0.420549
C	-1.3600864188	-0.5187939726	 0.0320593598	 0.317968
C	-2.4744464755	-0.9692293327	 0.0597458395	-0.460475
H	 0.9308562644	 2.0086168824	-0.1964390951	 0.115666
H	-0.6697920294	 1.8873205445	-0.9424334979	 0.127102
H	-0.5259219073	 2.0090836728	 0.8172035119	 0.127138
H	 0.4998169612	-0.3339761066	-0.8776706411	 0.104134
H	 0.3225276611	-0.0585488458	 2.1671798649	 0.113506
H	 0.710517644	-1.5426769095	 1.3100463464	 0.11953
H	 2.7106733291	-0.4090555945	 0.2790891424	 0.083343
H	 2.3884101846	 1.0110465381	 1.2925603919	 0.088986
H	 3.7961518015	-0.4593335295	 2.3679048899	 0.285797
H	-3.4559011045	-1.3739373518	 0.0750759006	 0.192705
74.9	101.0043	128.0196	198.7502	241.0715	264.5368	291.5222	338.5231	415.9108	532.1046	553.5233	625.3503	633.2026	791.0382	832.9899	930.1422	970.5518	1022.5707	1052.4556	1096.5469	1122.6513	1175.489	1232.9439	1241.4662	1307.0996	1311.9991	1339.2711	1366.6773	1408.3712	1461.5959	1488.8054	1494.9382	1503.3469	1528.7893	2235.0899	2955.3761	2995.3721	2996.332	3043.7892	3048.583	3094.3839	3117.0042	3122.6105	3505.4778	3830.7473
CC(CCO)C#C	C[C@@H](CCO)C#C	
InChI=1S/C6H10O/c1-3-6(2)4-5-7/h1,6-7H,4-5H2,2H3	InChI=1S/C6H10O/c1-3-6(2)4-5-7/h1,6-7H,4-5H2,2H3/t6-/m1/s1
