13
gdb 4860	5.19138	1.4822	1.20757	1.4901	56.53	-0.2114	0.0292	0.2406	944.8267	0.095682	-435.755731	-435.748515	-435.747571	-435.787701	25.62	
C	-0.0440915585	 1.3604576292	-0.0303483572	-0.255507
O	 0.6443047232	 0.111451061	 0.1349369698	-0.262934
C	 0.8522596462	-0.5801095739	-0.9819254405	 0.37883
C	 0.5203151974	-1.8170102097	-1.4030469376	-0.218495
N	 1.1164619335	-2.0569150212	-2.6505246902	-0.379212
C	 1.7469988387	-0.9599005805	-2.8949207645	 0.481365
O	 2.4726374147	-0.6350657412	-3.9643259261	-0.399388
O	 1.6639638968	-0.0003479978	-1.9578998696	-0.208323
H	 0.5420161793	 2.0489737346	-0.6465080391	 0.142968
H	-1.0256215106	 1.1982281098	-0.4898810423	 0.128737
H	-0.1656982526	 1.7744744076	 0.9711066007	 0.141819
H	-0.0890492542	-2.5520958479	-0.9050775406	 0.128361
H	 2.4455882361	-1.39882205	-4.5551718627	 0.321778
67.2399	151.2137	161.9783	273.6441	364.9355	421.7461	445.4831	529.7502	624.6086	683.4849	744.0279	757.0741	824.9408	959.2194	1011.1927	1032.3617	1123.4355	1172.838	1193.1172	1226.1153	1253.523	1288.8367	1470.8235	1484.7817	1492.9444	1503.2922	1661.1263	1707.5228	3028.8663	3104.8085	3150.5844	3279.6189	3804.4602
COC1=CN=C(O)O1	COc1cnc(O)o1	
InChI=1S/C4H5NO3/c1-7-3-2-5-4(6)8-3/h2H,1H3,(H,5,6)	InChI=1S/C4H5NO3/c1-7-3-2-5-4(6)8-3/h2H,1H3,(H,5,6)
