17
gdb 1485	3.53439	1.78413	1.27293	4.0656	62.08	-0.2745	0.0105	0.285	954.2536	0.145953	-346.890881	-346.882317	-346.881372	-346.924505	29.321	
C	-0.0189714293	 1.5419752661	-0.0502773048	-0.395241
C	 0.0148420887	 0.0122857919	-0.0470799396	-0.168472
C	 0.7251952654	-0.589530086	-1.2589529036	 0.122524
C	 0.8051944998	-2.1115024591	-1.2179166582	-0.39303
O	-0.0130067807	-0.1973015423	-2.439686995	-0.187782
C	 0.6693933157	 0.2554710296	-3.5040746315	 0.170717
O	 0.1433914125	 0.5584746891	-4.5333747031	-0.279773
H	 0.9930723641	 1.9624941627	-0.0519063424	 0.113037
H	-0.5430856988	 1.9196921433	-0.9321518808	 0.139932
H	-0.5340826684	 1.9219052156	 0.8364875006	 0.119654
H	 0.5249822775	-0.3520429065	 0.8526288901	 0.102326
H	-1.0055360233	-0.3878984766	-0.0132468237	 0.114303
H	 1.7380277422	-0.1667405061	-1.3320188604	 0.084993
H	-0.1984293648	-2.5455672985	-1.1848942455	 0.136161
H	 1.3167329631	-2.5001485698	-2.1032089213	 0.124591
H	 1.3556242937	-2.4405275391	-0.3312877686	 0.122625
H	 1.7603257226	 0.3226289157	-3.3192626822	 0.073435
40.0063	103.3975	151.404	211.1144	220.7815	230.8465	278.7168	360.7881	471.9022	492.4288	607.2816	789.0518	851.0714	932.6353	986.1911	1005.8623	1037.8585	1047.5349	1135.0563	1136.1124	1182.0037	1221.9275	1300.6304	1325.1358	1376.5683	1394.4446	1410.9393	1411.386	1439.2891	1475.314	1488.4564	1496.5154	1498.5615	1509.3647	1861.9607	2934.6784	2998.2139	3032.695	3037.3681	3042.8539	3070.8985	3105.1103	3116.7745	3121.0946	3123.9255
CCC(C)OC=O	CC[C@@H](C)OC=O	
InChI=1S/C5H10O2/c1-3-5(2)7-4-6/h4-5H,3H2,1-2H3	InChI=1S/C5H10O2/c1-3-5(2)7-4-6/h4-5H,3H2,1-2H3/t5-/m1/s1
