18
gdb 634	5.6833	2.57368	1.96324	0.0271	63.63	-0.2725	0.0939	0.3665	699.4861	0.165637	-235.695309	-235.68805	-235.687106	-235.725942	26.909	
C	-0.1840906356	 1.423732936	 0.0967381054	-0.383101
C	 0.0827479286	-0.079100895	-0.0693473528	 0.029263
C	 0.8654872338	-0.3651763105	-1.3588348873	-0.383102
C	 0.8022586789	-0.6436109835	 1.1432568961	 0.060657
C	 0.0375348084	-1.0308906583	 2.3828409044	-0.275089
C	 0.6633136369	-2.0975292357	 1.5149721091	-0.275089
H	 0.7578045391	 1.9800211649	 0.1746615919	 0.109308
H	-0.735950399	 1.826594992	-0.7591775944	 0.106528
H	-0.7650634595	 1.6255863692	 1.0020523161	 0.112824
H	-0.8887454525	-0.5899780139	-0.1419968391	 0.064529
H	 1.8466108986	 0.1242501746	-1.3353098839	 0.109308
H	 1.0327675538	-1.4386569667	-1.4912167139	 0.112824
H	 0.3313041249	 0.0075648199	-2.2392617439	 0.106528
H	 1.7845460099	-0.2055879642	 1.3131939485	 0.074047
H	 0.4790812087	-0.8302673871	 3.3528515401	 0.10776
H	-1.043533709	-0.9339377219	 2.3606135247	 0.107524
H	-0.0006843864	-2.7114744713	 0.9143215298	 0.107524
H	 1.5322916703	-2.6254659885	 1.8921899792	 0.10776
94.0855	198.5602	221.2423	231.5209	288.2619	334.5078	458.3726	460.7719	741.1728	802.7106	828.2421	888.4449	922.8528	933.3312	968.3721	971.1927	1014.4558	1057.0079	1076.6784	1136.6333	1144.4167	1188.029	1197.9895	1225.301	1231.6638	1316.276	1346.6517	1398.5218	1414.5631	1425.6273	1469.7585	1486.2893	1490.8461	1501.8842	1505.1428	1512.0701	2994.6313	3023.0696	3027.4117	3086.9014	3092.6982	3101.3667	3103.2361	3118.1101	3124.9974	3130.3818	3202.5201	3217.6848
CC(C)C1CC1	CC(C)C1CC1	
InChI=1S/C6H12/c1-5(2)6-3-4-6/h5-6H,3-4H2,1-2H3	InChI=1S/C6H12/c1-5(2)6-3-4-6/h5-6H,3-4H2,1-2H3
