14
gdb 1257	8.80026	1.2574	1.11536	0.455	59.47	-0.2618	-0.0183	0.2435	1036.5637	0.110723	-361.750275	-361.742143	-361.741199	-361.783306	26.801	
C	 0.0343009716	 1.3960643299	-0.1256453561	-0.318204
N	-0.0326511597	-0.0333958176	-0.3601887322	-0.189945
C	-1.0732600254	-0.6250612716	 0.0114260515	 0.114931
O	-1.1641839767	-1.9810071543	-0.1983730759	-0.219139
C	-2.3086815881	-2.6220694072	 0.2121590264	 0.441432
C	-2.2075525771	-4.0888623523	-0.1072393117	-0.482477
O	-3.232646942	-2.0696802349	 0.7423847803	-0.32918
H	 0.9099229279	 1.6184663174	 0.4937533539	 0.135303
H	 0.1811421352	 1.9110172523	-1.0812040518	 0.135303
H	-0.8582392715	 1.8137845951	 0.3649524303	 0.106472
H	-1.9514786926	-0.1950967244	 0.4976703209	 0.132765
H	-3.1145482122	-4.5953478161	 0.2195379704	 0.152548
H	-2.0647333235	-4.2256455244	-1.1829304074	 0.160105
H	-1.3339921059	-4.5182157018	 0.3915070714	 0.160087
76.8537	93.3659	100.1665	157.3602	213.9003	331.6487	332.633	395.3202	554.5383	594.772	642.4284	920.6857	991.7464	1002.0392	1063.9435	1064.3356	1135.0776	1141.7196	1186.0063	1232.9233	1368.9235	1397.0176	1447.6052	1466.4116	1472.9677	1481.0068	1501.5434	1778.5459	1846.3587	2983.8733	3058.1393	3070.292	3088.2694	3113.2917	3123.1813	3172.85
CN=COC(C)=O	CN=COC(=O)C	
InChI=1S/C4H7NO2/c1-4(6)7-3-5-2/h3H,1-2H3	InChI=1S/C4H7NO2/c1-4(6)7-3-5-2/h3H,1-2H3
