13
gdb 4531	3.80878	1.71319	1.18499	1.5466	56.04	-0.1596	0.0642	0.2238	921.1618	0.094356	-435.749576	-435.741395	-435.740451	-435.781558	29.835	
O	 0.0820493301	 1.3531071867	 0.2133598483	-0.438457
C	 0.0681482831	 0.0111547185	-0.0103509237	 0.386016
C	 0.0375300443	-0.7618319772	-1.1404972828	-0.417794
C	 0.0513285943	-2.1304311046	-0.6846043057	 0.155279
O	-0.0357270807	-3.2918520817	-1.4266375475	-0.46187
C	 0.0863083859	-2.1161841249	 0.6797228402	 0.30614
O	 0.0957134564	-3.1105112312	 1.6054655614	-0.447088
N	 0.090841535	-0.801958275	 1.095657091	-0.349069
H	 0.018899645	 1.7981601513	-0.6366685882	 0.305424
H	-0.0007288185	-0.418217831	-2.1622329469	 0.088289
H	 0.7395951414	-3.3533818012	-1.9950236248	 0.293605
H	 0.0315066524	-3.9368363227	 1.1121064509	 0.307847
H	 0.1037784515	-0.487957487	 2.0499718279	 0.271678
166.3028	195.2453	217.9215	240.3679	256.1091	286.2629	319.5734	329.9564	374.415	531.5245	603.1068	633.9249	658.8101	670.2881	695.4981	825.0269	1029.7685	1124.5706	1160.6445	1177.9454	1186.0468	1272.4794	1304.5144	1385.5799	1522.6172	1535.6947	1621.7935	1701.3139	3249.1277	3692.1334	3785.1875	3811.2163	3852.3292
OC1=CC(O)=C(O)N1	Oc1cc(O)c(O)[nH]1	
InChI=1S/C4H5NO3/c6-2-1-3(7)5-4(2)8/h1,5-8H	InChI=1S/C4H5NO3/c6-2-1-3(7)5-4(2)8/h1,5-8H
