15
gdb 1669	4.42613	1.83126	1.41125	2.2935	54.01	-0.2599	-0.0346	0.2253	844.6821	0.122808	-382.805933	-382.797832	-382.796887	-382.838635	28.305	
C	 0.045506556	 1.4147695473	 0.030868186	-0.482852
C	 0.0046553357	-0.0920251453	-0.0366187378	 0.362916
O	 1.0057213085	-0.7723587485	-0.1301719907	-0.316906
C	-1.3498401817	-0.7911307559	 0.0433681058	 0.018058
O	-1.1873557397	-2.1765594538	-0.143815088	-0.445208
C	-2.0365584164	-0.559102897	 1.4073202282	-0.064689
O	-3.1922476439	-1.3544741645	 1.5045784497	-0.417134
H	 1.0479846959	 1.769292622	-0.2112437134	 0.153133
H	-0.6881482533	 1.8585723226	-0.6493743035	 0.147154
H	-0.2140603645	 1.7464140336	 1.0433292078	 0.158119
H	-2.0076355523	-0.3926873354	-0.7441579244	 0.099211
H	-0.2253531556	-2.3187820253	-0.1502555745	 0.29587
H	-1.3148272353	-0.7892842586	 2.2096417376	 0.090262
H	-2.3478597142	 0.4850569094	 1.515805532	 0.106555
H	-2.9198077891	-2.2376598105	 1.2221367552	 0.295512
63.8914	116.0617	123.3083	183.0137	296.3588	343.5361	399.9389	457.3894	503.6158	519.2756	582.7765	636.0037	826.9359	906.644	968.5595	993.0579	1084.2805	1103.7275	1132.7805	1198.5473	1233.7682	1265.4109	1330.6308	1383.89	1390.7208	1434.2639	1437.8831	1463.7201	1474.6178	1501.619	1793.1332	2958.9448	2999.1965	3039.942	3075.7855	3103.1997	3155.0168	3656.2909	3768.8822
CC(=O)C(O)CO	CC(=O)[C@@H](O)CO	
InChI=1S/C4H8O3/c1-3(6)4(7)2-5/h4-5,7H,2H2,1H3	InChI=1S/C4H8O3/c1-3(6)4(7)2-5/h4-5,7H,2H2,1H3/t4-/m0/s1
