15
gdb 4845	5.03486	1.41963	1.17847	2.6589	64.87	-0.2012	0.0295	0.2307	1006.265	0.120324	-396.005013	-395.997274	-395.99633	-396.037327	28.177	
C	 0.3264424542	 1.2660059621	 0.2787258143	-0.327849
N	-0.3043536003	 0.0481951382	-0.2408619306	-0.391538
C	 0.4503855279	-0.722510048	-1.1038078612	 0.290987
C	 0.9904125395	-1.9579649559	-1.0429382422	-0.132828
N	 1.6992772669	-2.2504234056	-2.2051107247	-0.343805
C	 1.5519337113	-1.1784468243	-2.9245927544	 0.457682
N	 1.99529897	-0.9714874083	-4.208767536	-0.586343
O	 0.8258949851	-0.1949211418	-2.3653322704	-0.218295
H	 1.2463161856	 0.9914200542	 0.8023944445	 0.134176
H	 0.5789096694	 2.0019820116	-0.4985045822	 0.113941
H	-0.349418113	 1.7371738893	 0.9981396928	 0.120684
H	-1.2314352682	 0.2424980272	-0.6032336023	 0.234773
H	 0.915334153	-2.6626876234	-0.2299274062	 0.11902
H	 2.7283294437	-1.6137768243	-4.4720904785	 0.268451
H	 2.2036985252	-0.009772621	-4.434197073	 0.260943
66.464	137.5653	173.0608	261.2491	295.8975	342.4048	428.8324	487.1422	602.5154	619.2872	625.8718	733.8296	752.512	785.2165	877.6613	920.6226	1005.4538	1035.1549	1088.4286	1146.1114	1164.4769	1187.1848	1206.5191	1295.8296	1437.5956	1452.3563	1474.5107	1490.1065	1519.6773	1598.0932	1670.2238	1701.9736	2996.734	3079.3228	3119.0105	3265.0315	3518.6347	3572.5707	3680.9862
CNC1=CN=C(N)O1	CNc1cnc(N)o1	
InChI=1S/C4H7N3O/c1-6-3-2-7-4(5)8-3/h2,6H,1H3,(H2,5,7)	InChI=1S/C4H7N3O/c1-6-3-2-7-4(5)8-3/h2,6H,1H3,(H2,5,7)
