12
gdb 4675	7.65149	1.31801	1.12434	1.4957	59.47	-0.2249	-0.0531	0.1718	952.4057	0.085044	-414.712214	-414.70561	-414.704666	-414.743045	24.113	
O	 0.0721132696	 1.3649047132	-0.0444239064	-0.424574
C	 0.0648408442	 0.0215870292	-0.0812506494	 0.358122
C	 0.0136393375	-0.7793300145	-1.1823146605	-0.224884
N	 0.0305567622	-2.0827691918	-0.6657347438	-0.045857
C	-0.0058342472	-3.2758262772	-1.3876040046	 0.182141
O	 0.0118330553	-4.3650657562	-0.8809464021	-0.279321
C	 0.0906176534	-1.9671921555	 0.7055244531	 0.043892
N	 0.1123257567	-0.7179476638	 1.0840421522	-0.34591
H	 0.1136139664	 1.6143023127	 0.8873367488	 0.308377
H	-0.0313129355	-0.5761547663	-2.2368880463	 0.14791
H	-0.052081026	-3.0956319295	-2.4759235312	 0.109266
H	 0.1144474333	-2.8389376504	 1.3389775302	 0.170838
114.4663	205.2439	241.1167	341.7813	391.7071	405.5235	516.4429	625.0777	654.2106	725.2987	737.3721	815.8044	855.0678	999.0541	1031.3428	1034.3453	1164.3604	1215.1109	1270.4329	1300.6363	1377.9558	1440.4813	1444.0899	1535.8242	1687.7006	1829.7959	2988.716	3282.914	3298.7059	3799.3043
OC1=CN(C=O)C=N1	Oc1cn(C=O)cn1	
InChI=1S/C4H4N2O2/c7-3-6-1-4(8)5-2-6/h1-3,8H	InChI=1S/C4H4N2O2/c7-3-6-1-4(8)5-2-6/h1-3,8H
