14
gdb 2640	17.58451	0.84011	0.82049	0.5827	56.04	-0.2571	-0.0428	0.2142	1274.9805	0.110458	-361.708121	-361.69995	-361.699006	-361.741978	26.217	
O	-0.0287837709	-0.1217763401	 0.1942615077	-0.230515
C	 0.0796476723	 0.9991346457	-0.2262395724	 0.148049
C	 1.3477973844	 1.8329435767	-0.126523064	-0.219272
N	 1.4437048578	 2.7583072271	-1.245219008	-0.317767
C	 2.4770843701	 3.7741215472	-1.1140759121	-0.219268
C	 2.3168045235	 4.8445675882	-2.1826458773	 0.148046
O	 3.2266949913	 5.4740088568	-2.65267361	-0.230516
H	-0.7626418977	 1.5329394026	-0.7214948749	 0.089156
H	 1.2567943253	 2.4243375926	 0.7972854575	 0.136947
H	 2.2078020062	 1.1585395082	 0.0109011515	 0.118711
H	 1.5847399486	 2.2384204395	-2.1059059669	 0.231619
H	 2.3361457571	 4.2798005627	-0.1466731225	 0.136942
H	 3.5148350964	 3.4052465661	-1.1320152732	 0.118712
H	 1.2591079356	 5.0078732268	-2.4897082453	 0.089156
51.3431	75.0103	79.4049	118.2265	187.7229	327.4834	340.0554	506.9535	564.8342	732.619	748.1827	831.29	1008.1173	1030.0473	1059.9313	1089.2146	1153.3195	1164.6055	1214.3326	1287.8516	1305.4582	1357.4168	1401.5539	1411.8278	1463.7693	1482.811	1507.7289	1841.2136	1843.3325	2885.7555	2887.9193	2979.6904	2983.8446	3024.2526	3026.5856	3511.9672
O=CCNCC=O	O=CCNCC=O	
InChI=1S/C4H7NO2/c6-3-1-5-2-4-7/h3-5H,1-2H2	InChI=1S/C4H7NO2/c6-3-1-5-2-4-7/h3-5H,1-2H2
