13
gdb 3024	14.26387	1.04149	1.03219	1.5218	78.14	-0.2295	-0.0116	0.2179	1102.2877	0.100641	-270.117027	-270.109946	-270.109002	-270.1481	25.782	
C	 0.0336703344	-3.7642178055	-0.0316249824	-0.571444
C	 0.0286966591	-2.5560565036	-0.0176222906	 0.305431
C	 0.022291833	-1.1966840514	-0.0023101917	-0.304978
C	 0.0242053507	 0.0152897324	 0.0167440243	 0.447309
C	 0.0134459219	 1.4430424222	 0.030567454	-0.199409
C	 0.4928095897	 2.201140677	 1.2627319528	-0.250515
C	 1.3248354473	 2.2194614773	 0.0181092341	-0.250516
H	 0.0386274914	-4.8255344702	-0.0435845276	 0.187952
H	-0.8097666805	 1.8979531315	-0.5130579365	 0.119922
H	-0.0600288971	 3.0933498593	 1.5335600408	 0.124422
H	 0.838250964	 1.6071760421	 2.1001188626	 0.133703
H	 2.2386705386	 1.638015541	 0.005245836	 0.133702
H	 1.3515335374	 3.1244290978	-0.5779912657	 0.124422
96.9185	105.4603	243.5419	250.8948	452.162	477.3414	528.5461	538.7925	596.3059	598.1605	653.0213	792.0816	820.0548	885.348	896.3423	1055.1142	1061.9684	1081.1205	1112.6155	1189.8679	1201.1838	1236.0053	1391.5481	1466.9652	1495.2665	2180.0982	2353.9425	3143.3027	3143.5625	3148.8173	3229.0092	3243.987	3506.7538
C#CC#CC1CC1	C#CC#CC1CC1	
InChI=1S/C7H6/c1-2-3-4-7-5-6-7/h1,7H,5-6H2	InChI=1S/C7H6/c1-2-3-4-7-5-6-7/h1,7H,5-6H2
