12
gdb 1380	9.0332	1.35275	1.17656	1.1294	58.23	-0.253	-0.0891	0.1639	919.8704	0.090171	-356.708234	-356.701138	-356.700194	-356.739716	24.141	
N	 0.9741608164	 0.1084380147	-0.4978668557	-0.461141
C	-0.1254480274	 0.5436511943	-0.0327063835	 0.099971
N	-1.2933563019	-0.1653560221	-0.2543840848	-0.309119
C	-2.5426551421	 0.20365826	 0.1973428145	 0.301941
N	-2.7585205978	 1.257192679	 0.880303953	-0.493336
C	-3.6413202122	-0.7643452603	-0.1950670824	 0.105127
O	-4.7875260725	-0.5898610555	 0.1186717387	-0.226871
H	 1.7359663435	 0.7371537597	-0.2515188507	 0.235971
H	-0.2936752612	 1.4498401649	 0.5517099428	 0.149393
H	-1.1900121879	-1.014643921	-0.7922337352	 0.260728
H	-3.7576416881	 1.3040367281	 1.0902819521	 0.245234
H	-3.3266266188	-1.6493377616	-0.7922583487	 0.092102
88.9629	146.0415	169.0853	189.805	314.3863	435.4878	498.2251	541.7144	610.1976	770.5316	824.3327	878.2344	956.5645	1028.2281	1057.9282	1085.7083	1159.7821	1271.2562	1327.4541	1396.8194	1424.8086	1534.0193	1703.3245	1730.6302	1837.0022	2884.8644	3129.0793	3468.9004	3513.1285	3604.1271
N=CNC(=N)C=O	N=CNC(=N)C=O	
InChI=1S/C3H5N3O/c4-2-6-3(5)1-7/h1-2H,(H3,4,5,6)	InChI=1S/C3H5N3O/c4-2-6-3(5)1-7/h1-2H,(H3,4,5,6)
