21
gdb 1337	4.70841	1.54995	1.41719	0.1119	75.32	-0.2555	0.0888	0.3443	989.7399	0.193333	-274.987297	-274.978488	-274.977544	-275.019934	32.759	
C	-0.0475459177	 1.5460513213	-0.273456629	-0.369554
C	-0.0108278933	 0.0943812291	 0.2203945884	-0.203275
C	-1.3738607786	-0.5667236083	 0.1660531755	-0.002357
C	-1.8770173316	-1.2360580651	-1.09613938	-0.32792
C	-1.5996405989	-2.0651688016	 0.1396388518	 0.336456
C	-0.4221986926	-3.0227187776	 0.1266193955	-0.45242
C	-2.7969401221	-2.592549076	 0.9101010874	-0.446449
H	 0.943277225	 2.0088352563	-0.2250009733	 0.107359
H	-0.3958427454	 1.5984844946	-1.3103383618	 0.11743
H	-0.7286111738	 2.1521482541	 0.3342076096	 0.112057
H	 0.7081835209	-0.4713130391	-0.3822379461	 0.093492
H	 0.3700862562	 0.070521027	 1.2504319108	 0.093913
H	-2.1312495768	-0.0148423457	 0.7216445475	 0.07147
H	-2.9071398594	-1.0800692819	-1.4004231163	 0.10162
H	-1.1805325484	-1.3211530027	-1.9256184402	 0.10116
H	 0.4126490312	-2.6520714649	-0.4730155172	 0.113254
H	-0.0489313032	-3.206343215	 1.1415215973	 0.111372
H	-0.7214531408	-3.9908612273	-0.2924643787	 0.111649
H	-3.1582450575	-3.535498236	 0.4817553628	 0.110498
H	-2.5405000958	-2.7838566489	 1.9593315765	 0.110781
H	-3.6281534774	-1.8805010725	 0.8952571194	 0.109463
77.4173	152.8177	180.9802	204.275	231.9051	261.6623	304.2536	365.4481	375.8714	435.7257	493.7723	694.5687	770.5905	802.8487	880.0219	916.7799	936.993	956.284	970.5701	1023.2731	1034.4494	1056.1036	1077.21	1119.5436	1145.9173	1159.7872	1198.3168	1272.0971	1303.8473	1333.7302	1351.8699	1407.1084	1411.4477	1424.928	1429.1334	1478.3985	1484.0986	1493.2689	1493.4888	1498.1757	1501.9153	1507.6557	1515.513	3014.8955	3015.8814	3023.7525	3030.2641	3058.4206	3073.2707	3076.7843	3094.6542	3097.4296	3103.2511	3109.4333	3114.0523	3117.604	3199.6689
CCC1CC1(C)C	CC[C@H]1CC1(C)C	
InChI=1S/C7H14/c1-4-6-5-7(6,2)3/h6H,4-5H2,1-3H3	InChI=1S/C7H14/c1-4-6-5-7(6,2)3/h6H,4-5H2,1-3H3/t6-/m0/s1
