17
gdb 3055	8.66109	1.07618	1.0068	0.1749	72.82	-0.24	0.0622	0.3022	1186.746	0.1472	-272.549011	-272.540693	-272.539748	-272.583123	28.652	
C	-0.0374395681	 1.4095004086	-0.2217952465	-0.495674
C	-0.033781272	-0.0307390003	-0.0065889604	 0.06287
C	-0.0233910647	-1.2218357359	 0.1695777963	 0.072468
C	-0.0391556088	-2.6672050351	 0.3847075301	-0.373666
C	-1.4062885521	-3.2955626713	 0.1520257598	 0.047778
C	-1.8282870973	-3.6958838373	-1.2355299688	-0.245923
C	-1.50938077	-4.7549891109	-0.2064406723	-0.278599
H	 0.654516271	 1.6958688085	-1.0218413042	 0.144661
H	-1.033694401	 1.7676240275	-0.5048244124	 0.145217
H	 0.2623917177	 1.9506241881	 0.6827108192	 0.144373
H	 0.6919066459	-3.1470989009	-0.2804920961	 0.118542
H	 0.2966787819	-2.889920136	 1.406914998	 0.124168
H	-2.1862873012	-2.8977936008	 0.7944813776	 0.090218
H	-2.8633043512	-3.5509657056	-1.5241935155	 0.110832
H	-1.118548281	-3.5429316991	-2.0420968859	 0.112846
H	-0.5870109466	-5.3149176385	-0.3250667126	 0.109047
H	-2.3257284124	-5.333598991	 0.2115821037	 0.110843
24.5001	62.0247	97.8631	209.7018	257.5327	331.8244	355.9466	383.1806	493.213	750.9577	776.9472	803.4198	843.2734	893.1863	954.2271	997.5473	1053.1128	1054.448	1057.8111	1077.5437	1136.2993	1146.2335	1165.4922	1197.4385	1226.6724	1263.1991	1324.2236	1407.3524	1415.855	1465.6783	1474.0143	1479.7086	1479.985	1507.7443	2373.7054	3004.7376	3024.4	3033.0627	3083.6029	3083.8758	3128.1678	3133.8261	3151.817	3206.0719	3221.7138
CC#CCC1CC1	CC#CCC1CC1	
InChI=1S/C7H10/c1-2-3-4-7-5-6-7/h7H,4-6H2,1H3	InChI=1S/C7H10/c1-2-3-4-7-5-6-7/h7H,4-6H2,1H3
