14
gdb 3262	3.66811	3.55542	1.88256	1.943	60.29	-0.2445	0.011	0.2555	660.1541	0.115028	-324.570906	-324.56465	-324.563706	-324.601415	22.51	
C	-0.1025333794	 1.437949707	 0.2314781136	-0.127663
O	 1.0743392724	 2.2489042685	 0.2232454365	-0.221902
C	 2.206058263	 1.8923703523	 0.8849159856	 0.128831
N	 2.7565519089	 0.7888008586	 1.1327059018	-0.258384
C	 2.3573552303	-0.5276954262	 0.6985030519	-0.200222
C	 1.0483055489	-0.8105158854	 0.017475417	-0.042429
C	 0.0209796843	 0.0051210344	-0.1904072038	-0.091988
H	-0.5436616827	 1.489466329	 1.2388428055	 0.12375
H	-0.7890329398	 1.9621481682	-0.4397317545	 0.125509
H	 2.7111140008	 2.8053785103	 1.2050986877	 0.117178
H	 3.1657851288	-0.8854826761	 0.0415068521	 0.131438
H	 2.4263625278	-1.1945337536	 1.5728123795	 0.127654
H	 0.9580666275	-1.842591831	-0.3200825375	 0.092372
H	-0.8695194407	-0.389536916	-0.6749231852	 0.095856
76.4866	122.4381	324.9047	382.123	454.5215	468.1177	663.7676	749.9074	803.9304	877.0863	913.9604	947.7626	970.8984	995.662	1017.4935	1034.8247	1083.7915	1172.1042	1256.0003	1285.1851	1289.5101	1385.9288	1410.4272	1424.4365	1441.2228	1452.3788	1489.2005	1756.7765	1782.5288	2985.9077	2990.3528	2994.25	3081.4972	3122.2991	3127.0395	3156.7984
C1OC=NCC=C1	C1OC=NCC=C1	
InChI=1S/C5H7NO/c1-2-4-7-5-6-3-1/h1-2,5H,3-4H2	InChI=1S/C5H7NO/c1-2-4-7-5-6-3-1/h1-2,5H,3-4H2
