17
gdb 1913	5.72782	2.06265	1.8091	1.4534	64.36	-0.2448	0.078	0.3228	752.6671	0.148174	-309.691584	-309.684513	-309.683569	-309.722094	27.24	
C	 0.005391675	 1.5446110762	 0.0665430167	-0.494516
C	 0.0408819526	 0.0454641434	-0.0019752642	 0.36766
C	-0.8698697688	-0.8479320234	 0.7899618721	-0.317283
C	 0.6179888604	-0.9726373794	 0.9960875065	-0.098163
C	 1.2366811851	-1.7672012407	-0.143075757	 0.129074
O	 0.8254636244	-3.118481483	-0.182187748	-0.433711
C	 0.6152270615	-0.7617770235	-1.1767041509	-0.331423
H	 0.9765150526	 1.9809267043	-0.1955209649	 0.113022
H	-0.7386269127	 1.9566527597	-0.626480218	 0.11886
H	-0.2562840309	 1.8898551087	 1.0723669085	 0.116624
H	-1.399941769	-0.365290063	 1.6054499733	 0.104398
H	-1.4196358516	-1.6545795229	 0.3129642097	 0.115471
H	 1.0764725533	-0.806605776	 1.9639305463	 0.078593
H	 2.3325383506	-1.6922172952	-0.1378889751	 0.065802
H	 1.216716291	-3.5277734153	-0.9606177497	 0.28064
H	-0.1188321936	-1.1885057165	-1.8686504493	 0.090934
H	 1.3770537802	-0.2242648334	-1.7484090463	 0.09402
128.6881	213.1986	242.4593	285.5129	329.624	380.6387	431.0165	532.6965	617.6915	702.1212	799.8923	848.9533	896.9286	954.831	958.9368	982.1616	985.9519	1037.7133	1066.233	1073.2225	1094.4964	1141.323	1167.5512	1214.6145	1236.1673	1257.5751	1291.1107	1331.1282	1395.1637	1419.7787	1426.6737	1475.0088	1486.4808	1497.6076	1507.4184	3002.6207	3017.364	3039.0748	3073.9813	3092.6011	3096.3398	3115.8991	3177.0176	3201.348	3813.9969
CC12CC1C(O)C2	C[C@]12C[C@H]1[C@@H](O)C2	
InChI=1S/C6H10O/c1-6-2-4(6)5(7)3-6/h4-5,7H,2-3H2,1H3	InChI=1S/C6H10O/c1-6-2-4(6)5(7)3-6/h4-5,7H,2-3H2,1H3/t4-,5-,6+/m0/s1
