14
gdb 1307	3.56803	2.63832	2.25229	4.1989	53.12	-0.2585	0.0086	0.2671	662.6069	0.113257	-361.731914	-361.724741	-361.723797	-361.762913	25.64	
C	-0.1045891744	 1.5609184691	 0.0252442148	-0.454835
C	-0.0393421006	 0.0350513634	-0.0567848939	 0.104823
N	-1.3167193574	-0.6524561938	 0.0862979051	-0.559868
C	 0.8744930597	-0.5370988153	-1.1701702518	-0.085215
O	 1.8160375076	-1.0316056526	-0.1573248935	-0.241483
C	 1.0237585838	-0.5945210985	 0.864173082	 0.457236
O	 1.1868537111	-0.7203653323	 2.0356587931	-0.335521
H	 0.8813908994	 2.0218828223	-0.0922234633	 0.130465
H	-0.7583340085	 1.9536582131	-0.762037358	 0.120545
H	-0.5102924171	 1.8670505902	 0.9940828292	 0.136795
H	-1.5707129799	-0.6809999881	 1.0701157051	 0.247179
H	-2.0515571831	-0.1349667785	-0.3885131595	 0.23051
H	 0.4416183262	-1.3666241374	-1.7297093941	 0.131432
H	 1.3653772932	 0.1834525984	-1.827372305	 0.117937
109.2975	181.9114	194.0851	238.6617	286.0749	361.3153	405.3675	565.1342	682.4658	742.5742	781.925	865.6163	878.4115	939.5506	959.652	990.7287	1084.801	1134.5674	1159.1161	1204.793	1275.9877	1306.2878	1366.834	1409.3758	1488.4142	1492.8127	1505.81	1652.1504	1935.4548	3028.6645	3077.431	3098.7692	3113.9051	3150.2543	3483.4591	3562.3222
CC1(N)COC1=O	C[C@@]1(N)COC1=O	
InChI=1S/C4H7NO2/c1-4(5)2-7-3(4)6/h2,5H2,1H3	InChI=1S/C4H7NO2/c1-4(5)2-7-3(4)6/h2,5H2,1H3/t4-/m1/s1
