15
gdb 135	20.12848	2.11047	2.00594	0.9755	50.27	-0.25	0.0926	0.3426	647.6919	0.136321	-233.542445	-233.535569	-233.534624	-233.572603	22.785	
C	-0.0331362062	 1.5200518572	-0.0132133902	-0.382206
C	 0.0192659654	-0.0090185418	 0.0290168573	-0.180276
C	 0.7506414697	-0.5331282543	 1.2570653306	-0.027407
O	 0.7540038119	-1.9436226725	 1.2185442567	-0.229347
C	 1.4108623641	-2.5202882702	 2.3191530154	-0.226844
H	 0.9726870096	 1.954134759	-0.0341379476	 0.115591
H	-0.5636187055	 1.8707840324	-0.9031046908	 0.1169
H	-0.5503894517	 1.9266971683	 0.8629458023	 0.115576
H	-0.9947019936	-0.4251246045	 0.0248377448	 0.106357
H	 0.5196186986	-0.3978057352	-0.8652914234	 0.106369
H	 1.7858119695	-0.147426042	 1.2809216553	 0.079828
H	 0.2575969983	-0.1756075433	 2.1790139617	 0.079828
H	 2.4694797411	-2.2175515883	 2.3711343009	 0.100533
H	 0.9325553075	-2.2458174549	 3.2735677597	 0.100535
H	 1.3612410714	-3.60565778	 2.2006347471	 0.124562
102.7428	116.3898	189.2783	230.5807	237.8971	405.3634	437.8352	766.0288	902.2803	907.0281	983.1569	1054.984	1127.3511	1168.0861	1173.4981	1204.1621	1233.9113	1269.7499	1315.1649	1337.5553	1411.7324	1429.7749	1481.7597	1484.9915	1492.2616	1500.0568	1503.9299	1510.2521	1533.733	2936.2319	2960.8913	2964.8541	3004.6117	3031.4427	3039.3501	3071.5913	3099.4797	3107.618	3110.3933
CCCOC	CCCOC	
InChI=1S/C4H10O/c1-3-4-5-2/h3-4H2,1-2H3	InChI=1S/C4H10O/c1-3-4-5-2/h3-4H2,1-2H3
