14
gdb 1043	6.93387	2.00405	1.70772	1.3811	58.79	-0.2364	0.0081	0.2445	743.444	0.114793	-324.618078	-324.61163	-324.610686	-324.649035	22.922	
C	-0.0141457763	 1.5165770207	 0.2074522455	-0.379304
C	-0.0507192928	 0.0087650681	-0.0946070421	-0.284408
C	-1.4316164162	-0.5495644809	-0.1267055216	 0.392415
N	-2.0739622082	-1.0689382699	-1.1261802085	-0.302981
C	-3.3169751218	-1.4127038817	-0.606198659	-0.114094
C	-3.3584650026	-1.074680958	 0.7014955865	-0.042285
O	-2.152721271	-0.517272154	 1.0276356685	-0.175204
H	 1.0186837702	 1.8751970114	 0.2325371614	 0.119499
H	-0.5536274442	 2.0813549602	-0.5584571387	 0.130455
H	-0.4740797417	 1.7322934583	 1.1756796566	 0.132354
H	 0.3984513215	-0.2018594243	-1.067920061	 0.13617
H	 0.5356966458	-0.5292717813	 0.6602060138	 0.122941
H	-4.0794766057	-1.8747599972	-1.2127362334	 0.122163
H	-4.0863780167	-1.1458415613	 1.490955422	 0.142279
48.7937	159.0068	209.9707	338.4255	405.6499	631.3477	657.595	742.4639	761.5702	796.5189	863.8315	932.9099	941.645	977.4258	1061.4119	1088.5772	1115.1887	1148.0163	1165.4344	1240.219	1296.1742	1348.6511	1388.3158	1411.7522	1474.753	1497.4624	1506.626	1558.7746	1621.0004	3038.2223	3045.2783	3105.2936	3118.4159	3128.1328	3263.5814	3299.8067
CCC1=NC=CO1	CCc1ncco1	
InChI=1S/C5H7NO/c1-2-5-6-3-4-7-5/h3-4H,2H2,1H3	InChI=1S/C5H7NO/c1-2-5-6-3-4-7-5/h3-4H,2H2,1H3
