17
gdb 1542	5.60552	1.28111	1.10217	1.2753	66.67	-0.2642	0.0337	0.2979	1077.1921	0.145756	-309.685872	-309.677142	-309.676198	-309.718959	31.07	
C	-0.0313745773	 1.5734875814	-0.027009194	-0.387261
C	 0.0142183983	 0.0435947231	-0.0085740531	-0.165214
C	 0.7005119878	-0.5149340558	 1.2411610345	-0.173749
C	 0.7916106229	-2.0532646287	 1.2346877166	-0.06044
O	 1.4882149931	-2.5456523343	 0.0906721935	-0.415251
C	 1.3834681546	-2.556060753	 2.4784188643	 0.294596
C	 1.9125535049	-2.9420287591	 3.4868152711	-0.441888
H	 0.977491694	 2.0007161351	-0.0053902992	 0.113545
H	-0.5297290837	 1.9447754214	-0.9278099961	 0.113838
H	-0.5736865712	 1.9671069696	 0.8400104935	 0.113521
H	-1.0072618931	-0.3557239163	-0.0662362809	 0.094538
H	 0.537621713	-0.3303142755	-0.8945154497	 0.113272
H	 1.717093363	-0.1082124821	 1.3310334012	 0.094392
H	 0.1632039223	-0.2033635049	 2.1454120746	 0.106351
H	-0.222160028	-2.4617176552	 1.1333948387	 0.11691
H	 2.4259748565	-2.3704969653	 0.228437998	 0.284304
H	 2.3642577827	-3.2993410303	 4.3792145971	 0.198537
84.8004	101.4174	121.1376	209.826	250.9132	259.9522	306.94	334.6349	440.64	548.6711	572.694	629.9299	670.6465	748.7124	845.1805	903.2202	909.2281	998.8363	1042.9058	1079.194	1117.1554	1134.3901	1240.8992	1269.4729	1295.9736	1332.1102	1350.7331	1389.8505	1412.9012	1420.3941	1477.1024	1494.1896	1500.504	1511.3338	2231.4144	3013.5097	3022.3898	3029.0439	3032.6796	3058.477	3076.6915	3099.128	3103.0805	3503.0396	3803.5863
CCCC(O)C#C	CCC[C@@H](O)C#C	
InChI=1S/C6H10O/c1-3-5-6(7)4-2/h2,6-7H,3,5H2,1H3	InChI=1S/C6H10O/c1-3-5-6(7)4-2/h2,6-7H,3,5H2,1H3/t6-/m0/s1
