13
gdb 4668	7.208	1.23745	1.05613	4.6313	63.81	-0.2051	-0.0288	0.1763	1016.6798	0.096137	-398.646593	-398.639442	-398.638498	-398.677908	26.226	
O	 0.0904786454	 1.3365478575	 0.1858996054	-0.43141
C	 0.0696078618	-0.0038661155	-0.0073599326	 0.416855
C	 0.0898376913	-0.8105035072	-1.1127108523	-0.427473
C	 0.0459851191	-2.1643946116	-0.6261000956	 0.202962
C	 0.0474726015	-3.3842637693	-1.4220546546	 0.072262
O	 0.009549989	-4.5116681794	-0.9734483015	-0.292533
C	 0.0012569639	-2.1113527529	 0.7537116132	-0.148331
N	 0.0161803552	-0.7927054762	 1.1157279791	-0.291816
H	 0.1289517804	 1.7698498645	-0.6721351572	 0.312605
H	 0.1305176075	-0.4942727924	-2.1436500825	 0.103543
H	 0.0875889255	-3.2117728184	-2.5221773005	 0.055497
H	-0.0390716715	-2.9057842588	 1.4791339132	 0.152599
H	-0.007598339	-0.4294965504	 2.0539691258	 0.27524
119.019	179.8529	228.2212	241.3595	331.6767	389.34	482.6629	516.9977	645.5507	661.104	703.5345	732.7841	778.9132	781.2804	985.9085	1013.7815	1040.3137	1123.2613	1151.9367	1184.9723	1291.1693	1340.0027	1414.3159	1457.1642	1500.8549	1561.6408	1641.7254	1781.3857	2864.3504	3247.7973	3287.9489	3670.1349	3848.2127
OC1=CC(C=O)=CN1	Oc1cc(C=O)c[nH]1	
InChI=1S/C5H5NO2/c7-3-4-1-5(8)6-2-4/h1-3,6,8H	InChI=1S/C5H5NO2/c7-3-4-1-5(8)6-2-4/h1-3,6,8H
