12
gdb 719	6.96309	5.38545	5.38524	0.0001	51.49	-0.2242	0.085	0.3092	362.9129	0.097379	-231.975652	-231.971606	-231.970662	-232.002516	16.7	
C	-0.0330009769	 1.521717859	 0.0086594583	-0.083365
C	-0.0353780581	 0.7683226024	-1.3140363275	-0.083286
C	-0.012480464	-0.0003962215	-0.0003231635	-0.083474
C	 1.5460098367	 0.0205782535	-0.0152322365	-0.083474
C	 1.5255973595	 1.5426923224	-0.0060073335	-0.083365
C	 1.5232168671	 0.7895085701	-1.3288235834	-0.083286
H	-0.7706295124	 2.198913718	 0.4177151941	 0.083375
H	-0.7751730745	 0.7630082269	-2.103145004	 0.083373
H	-0.7315156724	-0.7020345315	 0.4005728468	 0.083377
H	 2.2912015483	-0.6613616944	 0.3716433885	 0.083377
H	 2.2523035067	 2.2395864897	 0.3892817058	 0.083375
H	 2.24778043	 0.8041146354	-2.1318252151	 0.083373
648.8351	707.5854	708.2419	784.7721	785.3496	825.5604	826.0494	849.15	849.29	942.3081	942.801	949.822	978.9918	1003.4706	1013.5838	1025.6267	1026.8444	1119.1311	1178.2977	1178.4651	1266.9487	1267.0893	1301.7527	1353.6469	3189.604	3190.1513	3202.2302	3202.8083	3209.0953	3216.9209
C12C3C1C1C2C31	[C@H]12[C@@H]3[C@H]1[C@@H]1[C@H]2[C@H]31	
InChI=1S/C6H6/c1-2-3(1)6-4(1)5(2)6/h1-6H	InChI=1S/C6H6/c1-2-3(1)6-4(1)5(2)6/h1-6H/t1-,2+,3-,4+,5-,6+
