10
gdb 2739	4.59359	2.35971	1.72093	3.6887	48.73	-0.2904	-0.0656	0.2248	672.0782	0.065691	-359.304956	-359.298799	-359.297855	-359.335457	20.939	
O	-0.0706870373	-0.0097539111	-0.2546810437	-0.230372
C	-0.0357895348	 1.1569926959	-0.0549179662	 0.344988
C	-1.0192249386	 2.2760231117	 0.2896296049	-0.18292
O	 0.0628533153	 3.2354406018	 0.2580427685	-0.266303
C	 1.0755358777	 2.2624063516	-0.0566604077	-0.124797
C	 2.1127871106	 2.1379039233	 0.9606502406	 0.291299
N	 2.9253897236	 2.017565441	 1.7734472451	-0.302289
H	-1.7879948493	 2.4743082131	-0.4661416419	 0.151954
H	-1.4840164971	 2.1929435933	 1.2793779445	 0.158779
H	 1.5289396998	 2.4314118394	-1.041670364	 0.159661
97.9757	133.2192	238.2845	389.2269	426.0848	539.6922	586.9957	709.5713	774.7058	926.6369	1004.3743	1009.7577	1050.898	1058.1901	1135.1953	1193.4671	1297.1127	1322.636	1477.6865	1949.8666	2356.9241	3030.9206	3041.1324	3084.4718
O=C1COC1C#N	O=C1CO[C@H]1C#N	
InChI=1S/C4H3NO2/c5-1-4-3(6)2-7-4/h4H,2H2	InChI=1S/C4H3NO2/c5-1-4-3(6)2-7-4/h4H,2H2/t4-/m0/s1
