11
gdb 4213	5.90361	2.70366	1.85441	2.9725	53.92	-0.2597	-0.0319	0.2278	613.1003	0.080753	-347.466594	-347.461636	-347.460692	-347.495316	18.863	
F	-0.0019772907	 0.0462324676	 0.0037262428	-0.074354
C	-0.0149589319	 1.3769928384	 0.0106854647	 0.349166
N	-1.1983878895	 1.9444312705	 0.0291998097	-0.303237
C	-1.2250572263	 3.283626526	 0.0363204587	 0.008917
C	-0.0822633267	 4.0728961565	 0.0251920814	-0.125265
C	 1.1584098148	 3.4351827324	 0.0055434259	-0.062537
C	 1.2056256512	 2.0484800763	-0.0020949913	-0.255466
H	-2.212412745	 3.7374799792	 0.051675834	 0.119376
H	-0.1616118037	 5.1533240486	 0.0317065126	 0.106704
H	 2.0777472515	 4.0109419975	-0.0037199068	 0.117524
H	 2.1349675963	 1.4933020271	-0.0172213617	 0.119172
223.7404	428.289	435.7818	535.7235	560.9023	631.12	760.8719	804.3931	857.7572	895.2903	982.6717	1003.7978	1005.8729	1063.9273	1119.0901	1166.3515	1304.0864	1319.57	1329.0598	1467.0124	1511.4707	1627.127	1633.4842	3165.0034	3187.5655	3209.3607	3217.1442
FC1=NC=CC=C1	Fc1ncccc1	
InChI=1S/C5H4FN/c6-5-3-1-2-4-7-5/h1-4H	InChI=1S/C5H4FN/c6-5-3-1-2-4-7-5/h1-4H
