12
gdb 888	6.75419	2.28607	1.71468	4.0951	53.96	-0.176	0.0503	0.2263	679.0822	0.091449	-356.710498	-356.704045	-356.703101	-356.740474	24.017	
N	 0.1677341554	 1.3623073032	 0.1877818941	-0.592205
C	-0.0360447526	-0.0012644757	 0.0449279186	 0.352083
C	-1.1108871853	-0.7989989132	-0.0109963289	-0.196349
N	-0.6185621965	-2.1208599017	-0.1050083358	-0.333575
C	 0.7533045973	-2.1027944902	-0.0181972853	 0.466972
N	 1.5363450413	-3.0983299563	 0.0122014758	-0.604197
O	 1.1166784179	-0.759954022	 0.023876934	-0.228458
H	 0.8800556679	 1.7154255402	-0.4421750619	 0.25839
H	-0.6871757618	 1.8913543226	 0.0776166085	 0.255139
H	-2.1589358431	-0.5665481404	-0.0671032555	 0.129973
H	-1.1281963016	-2.9478945208	 0.1520974761	 0.269684
H	 2.502252531	-2.7943849857	 0.0950979303	 0.222543
168.1068	182.0398	268.8377	333.1356	370.144	507.525	614.128	631.3471	661.7194	704.5434	740.2637	752.0079	785.6262	936.9086	984.6133	1040.8356	1093.8452	1126.6675	1248.4685	1329.2545	1382.7757	1418.5646	1631.1904	1746.2404	1806.9941	3296.9501	3520.0972	3546.7249	3628.7818	3683.3193
NC1=CNC(=N)O1	NC1=CN[C@@H]([NH])O1	
InChI=1S/C3H5N3O/c4-2-1-6-3(5)7-2/h1H,4H2,(H2,5,6)	InChI=1S/C3H6N3O/c4-2-1-6-3(5)7-2/h1,3,5-6H,4H2/t3-/m1/s1
