14
gdb 1960	7.86939	1.55277	1.3938	5.0584	56.39	-0.2411	0.0243	0.2654	834.4061	0.113161	-361.712798	-361.705598	-361.704654	-361.745193	24.546	
O	 0.2902187846	 1.2981445523	-0.4115883541	-0.419928
C	 0.0136907352	-0.0071109882	 0.0203741604	 0.105962
C	 0.1086478047	-0.2818782378	 1.5604194543	-0.208154
N	-1.3140876919	-0.622356677	 1.5266314252	-0.042477
C	-1.5105994932	-0.2716735041	 0.1209643504	-0.174904
C	-2.2068395221	-1.0120650572	 2.460897585	 0.132976
O	-3.3889904321	-1.1926699061	 2.2497059266	-0.330519
H	 1.2432801117	 1.4002852299	-0.4981307459	 0.291014
H	 0.5464328567	-0.7566796072	-0.5760187864	 0.085711
H	 0.7692477379	-1.0984710595	 1.8714523134	 0.113858
H	 0.3402089936	 0.6234181074	 2.1339053472	 0.118271
H	-2.1066009269	 0.6347061562	-0.0276276338	 0.135
H	-1.9148533385	-1.0801113127	-0.4942355003	 0.126982
H	-1.7297157398	-1.1602463059	 3.4522471581	 0.066207
28.6048	104.5463	183.3665	281.1815	311.8624	387.4807	434.6597	536.6018	748.2094	828.0789	876.2126	953.6742	979.4683	1032.8098	1050.4788	1136.6959	1152.724	1181.5195	1198.4361	1242.4284	1278.6738	1305.3064	1315.3894	1398.1292	1434.5139	1461.1832	1496.3135	1515.8603	1792.2729	2915.9184	3022.9159	3034.8536	3050.3118	3077.1968	3102.572	3821.3717
OC1CN(C1)C=O	OC1CN(C1)C=O	
InChI=1S/C4H7NO2/c6-3-5-1-4(7)2-5/h3-4,7H,1-2H2	InChI=1S/C4H7NO2/c6-3-5-1-4(7)2-5/h3-4,7H,1-2H2
