14
gdb 3532	7.55671	2.3932	2.32995	1.4784	56.73	-0.2242	0.0606	0.2848	609.1144	0.112986	-324.444698	-324.439154	-324.43821	-324.47366	21.844	
C	 0.0279382069	 1.5377486342	-0.1639145785	-0.323054
N	 0.0312015158	 0.0823023128	-0.0448338403	-0.120521
C	-1.1167888397	-0.5009957993	 0.7091221659	-0.063401
C	-0.2534849434	-1.6998794979	 1.1943682991	 0.083668
O	-0.6261834096	-1.5725754728	 2.5944540071	-0.324463
C	-0.540120012	-0.1928749182	 2.1438789173	 0.074713
C	 0.6824284219	-0.4580890222	 1.1841683136	-0.063399
H	 1.0190096603	 1.8750655413	-0.4840184463	 0.123667
H	-0.690026515	 1.8343131138	-0.9353077264	 0.123667
H	-0.2308268792	 2.0691779254	 0.7680456307	 0.096653
H	-2.1490100436	-0.4891148045	 0.3567179502	 0.092107
H	-0.1153401095	-2.6882060946	 0.7604206042	 0.106626
H	-0.7501238072	 0.5933559218	 2.8682573095	 0.101629
H	 1.7524286043	-0.3960743496	 1.3868122042	 0.092107
225.8244	232.3194	305.2091	545.4838	549.8942	739.2612	746.0624	766.6409	801.1541	810.7296	884.0959	898.7822	928.9902	981.4062	1052.8556	1098.939	1105.3472	1148.1554	1149.2598	1164.2937	1164.4254	1171.349	1205.2481	1212.6856	1293.6707	1343.7665	1450.9459	1493.7567	1497.2454	2959.4691	3065.4662	3102.2835	3110.2261	3112.3546	3128.3473	3149.1666
CN1C2C3OC2C13	CN1[C@H]2[C@@H]3O[C@H]2[C@H]13	
InChI=1S/C5H7NO/c1-6-2-4-3(6)5(2)7-4/h2-5H,1H3	InChI=1S/C5H7NO/c1-6-2-4-3(6)5(2)7-4/h2-5H,1H3/t2-,3+,4-,5+
