16
gdb 566	8.62281	2.36504	2.02665	1.0403	57.2	-0.2445	0.0871	0.3316	657.4853	0.143075	-271.612772	-271.606218	-271.605273	-271.642958	23.494	
C	 0.0479152923	 1.5113911014	 0.3037698138	-0.239515
O	 0.4392749174	 0.2263256336	-0.1222721939	-0.238453
C	 0.6800574214	-0.6591398853	 0.9368408046	 0.181823
C	-0.5255661217	-1.2783814195	 1.7047059707	-0.24593
C	 0.2271431005	-2.6374787563	 1.6624913067	-0.216741
C	 1.097169121	-2.0772120992	 0.5032174859	-0.248659
H	 0.8159300146	 1.9809026166	 0.9391851781	 0.102014
H	-0.0919936685	 2.1238386321	-0.5903241806	 0.125199
H	-0.8967005032	 1.4898457864	 0.8680846145	 0.10658
H	 1.4056257346	-0.222372391	 1.6428886169	 0.059252
H	-0.7947853669	-0.8655793665	 2.6796772999	 0.092703
H	-1.4096907058	-1.2899219581	 1.0600670047	 0.10703
H	 0.8139778821	-2.8072878934	 2.5693045921	 0.103364
H	-0.3633609525	-3.533004605	 1.4608427036	 0.101572
H	 0.6594756198	-2.3029511502	-0.4731490453	 0.112982
H	 2.1625557646	-2.3159774955	 0.4821902783	 0.096777
100.4638	145.9819	196.9602	265.9955	438.5903	446.1781	618.113	756.6151	786.6747	899.3583	925.5218	946.5789	965.1317	1048.962	1055.8325	1144.8389	1165.8597	1184.572	1192.9184	1225.809	1246.3361	1257.9043	1259.7158	1275.0291	1307.2073	1393.3949	1472.1997	1482.2261	1486.0637	1487.9876	1506.9501	1513.1229	2961.9524	2973.6834	3018.8337	3055.7507	3062.8932	3066.9736	3106.5232	3112.8973	3115.9	3127.9554
COC1CCC1	COC1CCC1	
InChI=1S/C5H10O/c1-6-5-3-2-4-5/h5H,2-4H2,1H3	InChI=1S/C5H10O/c1-6-5-3-2-4-5/h5H,2-4H2,1H3
