17
gdb 133	17.04187	1.92713	1.82903	0.0603	56.8	-0.3105	0.0925	0.403	721.0614	0.160138	-197.629416	-197.622321	-197.621376	-197.659721	24.552	
C	-0.0406925061	 1.5666381082	 0.048713788	-0.378835
C	 0.0016919279	 0.0369116735	 0.001968379	-0.160902
C	 0.710063625	-0.509588441	-1.2422173133	-0.136812
C	 0.7584122957	-2.0402453701	-1.2987855517	-0.160902
C	 1.4677806522	-2.575544692	-2.5454998816	-0.378835
H	 0.9698297954	 1.9905204812	 0.0488764328	 0.112325
H	-0.567858619	 1.9744704608	-0.8211207747	 0.112319
H	-0.5524822079	 1.9272701152	 0.9466176335	 0.109431
H	 0.5049637438	-0.3439335736	 0.9007116933	 0.092587
H	-1.0216662045	-0.3599012965	 0.0385411928	 0.09259
H	 0.2071935641	-0.1289239909	-2.1426225738	 0.088892
H	 1.7344735687	-0.1125400024	-1.2803215877	 0.08889
H	 1.2614187954	-2.4192597013	-0.3991224941	 0.092589
H	-0.2654482802	-2.4356389105	-1.2608648146	 0.092588
H	 0.9660806854	-2.2408125501	-3.4604253115	 0.112322
H	 2.5047068979	-2.2241895817	-2.5920980651	 0.112322
H	 1.486840146	-3.6699339289	-2.5583221313	 0.109431
113.9071	116.3421	174.6542	240.4971	247.8108	392.0884	396.3846	734.0144	765.8722	867.0367	872.5467	928.2447	993.326	1039.4522	1047.2312	1077.6525	1162.4385	1211.9959	1269.3002	1294.5013	1328.0512	1333.5856	1371.6764	1400.3223	1412.7412	1413.6609	1484.6739	1487.3105	1497.4563	1498.9489	1499.923	1507.4205	1516.1694	3000.5315	3010.7207	3018.5849	3022.8969	3027.7172	3028.8296	3040.4387	3057.8743	3093.569	3095.1516	3099.2051	3099.5289
CCCCC	CCCCC	
InChI=1S/C5H12/c1-3-5-4-2/h3-5H2,1-2H3	InChI=1S/C5H12/c1-3-5-4-2/h3-5H2,1-2H3
