14
gdb 3255	6.19385	2.36333	2.12748	1.5242	57.35	-0.2358	0.0702	0.3059	639.4105	0.113992	-324.497693	-324.491951	-324.491007	-324.527017	22.394	
C	-0.040169665	 1.499035477	-0.0398158398	-0.261391
O	 1.1497654536	 0.6908011563	 0.0591744929	-0.280289
C	-0.1045715033	 0.042240434	-0.0003166659	 0.492964
C	-0.5552064566	-0.955084341	 1.0942836843	-0.314842
C	-0.8928843475	-1.9374497617	-0.0401963836	-0.038487
N	-1.8961117869	-1.2553386088	-0.8909185209	-0.334369
C	-0.4457745916	-0.967432892	-1.0807804476	-0.163585
H	-0.28108845	 2.0763124325	 0.8514717849	 0.117214
H	-0.1697659276	 2.0241510109	-0.9848841001	 0.116671
H	 0.3018385657	-1.26919237	 1.695068949	 0.121035
H	-1.3878078558	-0.6632388291	 1.7382174985	 0.112246
H	-0.81361428	-3.0166702623	-0.0230749227	 0.099249
H	-2.1604943098	-1.9094659193	-1.6281345636	 0.231074
H	 0.0485834348	-1.1181620064	-2.0321471355	 0.10251
146.0958	291.8374	346.2882	406.927	486.2188	585.248	765.018	819.067	832.7833	845.2842	877.3428	907.8453	931.4785	979.6433	992.1898	1056.9639	1090.7518	1111.156	1121.8036	1145.5177	1164.2994	1173.7927	1217.045	1291.919	1317.9807	1357.8303	1444.7124	1470.0379	1540.7826	3067.4208	3085.2406	3129.1573	3172.5452	3193.5667	3206.3827	3464.3903
C1OC11CC2NC12	C1O[C@]21C[C@H]1N[C@@H]21	
InChI=1S/C5H7NO/c1-3-4(6-3)5(1)2-7-5/h3-4,6H,1-2H2	InChI=1S/C5H7NO/c1-3-4(6-3)5(1)2-7-5/h3-4,6H,1-2H2/t3-,4-,5+/m1/s1
