15
gdb 2789	4.31724	2.30128	1.60851	3.2842	57.44	-0.2493	-0.0302	0.2191	758.8772	0.124721	-345.65887	-345.651862	-345.650918	-345.690104	25.415	
O	-0.2377421834	 1.5416118321	-0.0254147054	-0.421787
C	-0.0181600486	 0.1684978502	-0.2713057156	-0.075881
C	-1.2931891151	-0.6384071634	-0.0199407179	-0.105145
C	-1.2554511324	-2.1965500935	 0.0954213801	-0.261811
C	-2.0124284212	-2.1254996642	 1.4611966598	-0.328773
C	-1.7568577686	-0.6144600876	 1.4405344012	 0.398739
O	-1.7404013849	 0.2511401969	 2.2749494521	-0.31548
H	-0.5845038636	 1.611148695	 0.8742367859	 0.297322
H	 0.3019044576	 0.0760873325	-1.3146218718	 0.111775
H	 0.7951552681	-0.2339379569	 0.3563106687	 0.085415
H	-2.0871439973	-0.2857464221	-0.6877894912	 0.111926
H	-1.7539596357	-2.748076891	-0.7016546754	 0.115109
H	-0.2369925037	-2.5770799237	 0.2063540973	 0.117924
H	-3.079827664	-2.3534258699	 1.3729599036	 0.137699
H	-1.6096040271	-2.6748773444	 2.3154844787	 0.132966
85.2705	131.4948	184.7251	270.7503	396.6687	440.8646	511.6997	555.9632	696.033	743.2374	759.2211	894.3518	924.2973	938.2324	1030.6387	1048.7866	1080.5713	1103.2995	1136.2046	1191.7841	1198.0094	1229.1168	1254.7945	1259.1745	1319.8646	1381.9166	1438.8177	1445.7692	1491.9248	1513.1925	1862.2816	2959.4872	3053.4938	3058.9469	3069.4899	3075.7023	3114.9435	3138.6157	3756.5142
OCC1CCC1=O	OC[C@H]1CCC1=O	
InChI=1S/C5H8O2/c6-3-4-1-2-5(4)7/h4,6H,1-3H2	InChI=1S/C5H8O2/c6-3-4-1-2-5(4)7/h4,6H,1-3H2/t4-/m1/s1
