16
gdb 1988	6.47582	1.54091	1.31938	3.8081	60.83	-0.236	0.0379	0.2738	899.1938	0.136643	-325.800699	-325.792947	-325.792003	-325.833231	27.748	
N	 0.2869183468	 0.1598983739	 0.9992508266	-0.512349
C	-0.0009880761	 0.0664017418	-0.3308582001	 0.383193
O	 0.4360924721	 0.8476856906	-1.1528531554	-0.364677
C	-0.9388246078	-1.0802577407	-0.7241760792	-0.305908
C	-0.9732698006	-2.280493469	 0.1976079861	 0.003589
C	-1.9091919418	-2.3185690117	 1.3905516652	-0.267158
C	-2.1644382033	-3.2012038414	 0.194463966	-0.27865
H	 0.8593137414	 0.9271062656	 1.3100427919	 0.257507
H	-0.106923614	-0.4727248172	 1.6730003579	 0.264253
H	-1.9457641617	-0.650034741	-0.8086064984	 0.122408
H	-0.648187857	-1.3700729183	-1.7384896958	 0.132847
H	-0.0099066589	-2.7628338304	 0.341900571	 0.095677
H	-1.5670817709	-2.78570233	 2.3079925266	 0.115472
H	-2.5735268486	-1.4734733794	 1.5428222193	 0.118237
H	-2.9980572873	-2.9462211737	-0.4513728221	 0.118094
H	-1.9918017822	-4.2664788491	 0.2973597905	 0.117464
41.7473	102.7704	175.9887	195.7577	320.2315	343.5266	449.7821	528.7405	569.9084	677.0803	782.3716	808.5566	832.924	864.3268	906.1116	951.6822	1004.2597	1055.3164	1083.0592	1098.8936	1138.5596	1150.665	1200.5473	1226.6867	1256.6329	1308.1693	1354.4116	1411.1059	1459.8321	1471.4802	1505.5173	1604.9008	1800.3196	3030.2127	3088.3247	3125.7397	3135.1655	3141.7367	3205.8842	3223.4539	3603.7862	3742.9638
NC(=O)CC1CC1	NC(=O)CC1CC1	
InChI=1S/C5H9NO/c6-5(7)3-4-1-2-4/h4H,1-3H2,(H2,6,7)	InChI=1S/C5H9NO/c6-5(7)3-4-1-2-4/h4H,1-3H2,(H2,6,7)
