19
gdb 1923	4.4049	2.67365	2.32017	0.0761	70.65	-0.2863	0.0864	0.3726	690.2392	0.174209	-273.786179	-273.779919	-273.778975	-273.815657	25.87	
C	-0.0217447374	 1.5231095697	 0.0236208725	-0.497412
C	 0.0255311712	 0.0125848301	 0.0280848421	 0.362295
C	 0.9817347348	-0.799708917	-0.9029408928	-0.250398
C	 0.7136941276	-1.9315882887	 0.1279440965	-0.009957
C	 0.6669234828	-0.8033466959	 1.1959256003	-0.250397
C	-0.7826255658	-2.2206130894	-0.0969682244	-0.209403
C	-1.3051334382	-0.7483340935	-0.1728403014	-0.23724
H	 0.9731848992	 1.956028751	 0.173653385	 0.109744
H	-0.4114287179	 1.9043491368	-0.9278393481	 0.112405
H	-0.6736877982	 1.901298578	 0.8201243786	 0.112405
H	 0.6768968763	-0.9614096218	-1.9426964906	 0.080981
H	 2.0093862636	-0.4285875335	-0.866098804	 0.08897
H	 1.3811288758	-2.7885871669	 0.2265686132	 0.053929
H	 1.6599799204	-0.4326370334	 1.4634507044	 0.08897
H	 0.070539374	-0.968409044	 2.0999415381	 0.080981
H	-0.9642966987	-2.7810867225	-1.018943032	 0.092058
H	-1.2265194769	-2.7840639003	 0.7292612829	 0.092061
H	-2.0314491155	-0.5144534897	 0.6122887608	 0.090002
H	-1.7692333373	-0.5114677391	-1.1357364511	 0.090005
216.806	253.6805	294.4897	347.1687	433.3865	508.2711	581.9113	672.9566	814.0059	829.4126	834.3418	871.149	895.3564	924.2672	941.6351	964.4767	977.1188	992.9659	1040.352	1063.3692	1090.7486	1130.9864	1151.9496	1178.5091	1208.9932	1243.3337	1253.9447	1257.9558	1275.7364	1287.4493	1322.058	1352.8123	1414.6606	1484.1199	1490.2465	1494.2445	1496.0738	1501.8634	1532.2822	3019.1176	3035.2066	3038.7576	3042.3212	3052.8137	3075.7767	3081.0074	3089.4537	3095.4275	3101.8	3102.7129	3109.3111
CC12CC(C1)CC2	C[C@@]12C[C@@H](C1)CC2	
InChI=1S/C7H12/c1-7-3-2-6(4-7)5-7/h6H,2-5H2,1H3	InChI=1S/C7H12/c1-7-3-2-6(4-7)5-7/h6H,2-5H2,1H3/t6-,7+
