15
gdb 4009	3.51438	1.14455	0.87266	1.1136	68.57	-0.2417	-0.0329	0.2088	1242.0913	0.115546	-399.714593	-399.705417	-399.704473	-399.748783	32.157	
O	-0.1729807801	 1.4470437183	 0.0113629484	-0.425553
C	 0.0384226798	 0.0415762931	 0.0018106328	-0.085652
C	-1.3425954991	-0.6015964304	 0.0115802633	-0.259772
C	-1.3371787595	-2.1110387589	 0.0033782395	 0.163391
N	-0.2011079422	-2.7132444166	-0.0108356969	-0.165392
O	-0.3255818964	-4.0959251646	-0.0171240555	-0.385961
C	-2.5980698474	-2.7773589492	 0.0119202727	 0.32674
C	-3.6926648174	-3.27805697	 0.0197659515	-0.439004
H	 0.6868357709	 1.8770189118	 0.0061100814	 0.286754
H	 0.5953701508	-0.2796939708	-0.8895783727	 0.100952
H	 0.6122847834	-0.2891823922	 0.8788824202	 0.100949
H	-1.8954730678	-0.252680082	 0.8925433475	 0.133526
H	-1.9122211187	-0.2432525498	-0.8548108177	 0.133535
H	 0.5933413382	-4.3865450412	-0.0275707364	 0.309496
H	-4.6488931145	-3.7404296275	 0.0264922518	 0.205991
66.2804	101.6744	121.5607	169.7671	249.6292	264.2262	285.1555	344.7137	369.3424	441.5375	479.0562	621.5612	644.2802	652.492	691.1855	801.4773	826.173	1016.754	1044.7574	1073.1647	1088.8005	1190.0481	1217.3956	1258.2904	1300.3749	1355.558	1403.963	1461.8526	1478.3723	1522.0629	1683.4304	2221.5088	2996.893	3025.9133	3035.4384	3069.1742	3501.056	3809.2205	3834.8303
OCCC(=NO)C#C	OCCC(=NO)C#C	
InChI=1S/C5H7NO2/c1-2-5(6-8)3-4-7/h1,7-8H,3-4H2	InChI=1S/C5H7NO2/c1-2-5(6-8)3-4-7/h1,7-8H,3-4H2
