18
gdb 1754	5.07931	1.70906	1.44845	2.4831	64.79	-0.2347	0.0813	0.316	901.8656	0.159133	-326.942959	-326.934751	-326.933807	-326.975337	29.251	
C	-0.0545508042	 1.4111894762	 0.8774102334	-0.226782
O	-0.048402046	 0.0393693528	 1.1940530794	-0.238891
C	 0.8629211234	-0.7084124186	 0.4193963129	-0.124741
C	 0.7714124303	-2.1774562379	 0.7923506706	 0.314416
C	 1.6291837017	-3.079704822	-0.066954956	-0.451427
C	 0.4810563359	-2.5349207443	 2.2023347247	-0.268373
N	-0.5490996169	-2.714939716	 1.1537865146	-0.354549
H	-0.3280114834	 1.5843627635	-0.1750186599	 0.108705
H	-0.7960440409	 1.8916407354	 1.520007729	 0.130479
H	 0.9276688138	 1.8746192313	 1.0578647389	 0.108544
H	 0.6358345984	-0.5862947602	-0.6549487652	 0.089391
H	 1.8932212098	-0.3437251201	 0.5742017715	 0.092605
H	 2.692255148	-2.8318109416	 0.033753767	 0.111638
H	 1.487642734	-4.1224028536	 0.2259423056	 0.131129
H	 1.3588720903	-2.9893969279	-1.1254987851	 0.116149
H	 0.8794701064	-3.45748041	 2.61655673	 0.106881
H	 0.3450365851	-1.7268153072	 2.9137206007	 0.11937
H	-1.1994375658	-1.9342323998	 1.2224281879	 0.235456
84.5275	115.0905	182.1613	190.3954	233.445	324.5278	348.3859	382.0894	400.7599	509.838	727.6504	837.3553	916.9805	930.01	977.0157	992.4008	1024.8473	1041.1114	1097.0508	1128.0382	1151.2158	1165.0649	1189.4843	1226.099	1268.1622	1293.8269	1328.1538	1383.44	1415.7826	1432.0834	1479.811	1485.1616	1485.7272	1494.3297	1500.8473	1510.7396	1526.3354	2941.1146	2969.0937	2976.8083	3022.0677	3027.4146	3086.1625	3111.6039	3117.2629	3124.7747	3204.3616	3490.8883
COCC1(C)CN1	COC[C@@]1(C)CN1	
InChI=1S/C5H11NO/c1-5(3-6-5)4-7-2/h6H,3-4H2,1-2H3	InChI=1S/C5H11NO/c1-5(3-6-5)4-7-2/h6H,3-4H2,1-2H3/t5-/m1/s1
