13
gdb 4402	3.85757	2.09468	1.35803	5.5615	67.38	-0.2093	-0.0388	0.1705	838.3976	0.097308	-394.81954	-394.812733	-394.811789	-394.850552	25.679	
N	 0.0828558953	 1.3286830525	 0.1119361919	-0.564829
C	-0.0507346662	-0.0158646545	 0.0398972722	 0.495787
C	-1.2268392966	-0.7204319056	 0.0211386401	-0.291562
C	-1.0919555545	-2.126901246	-0.0145808657	 0.03163
N	 0.0387639566	-2.7784756583	-0.0301614589	-0.332898
C	 1.2078488904	-2.0560124793	-0.0107352156	 0.425317
N	 2.3985834681	-2.483984656	-0.0186262355	-0.534005
O	 1.1273560284	-0.6336253437	 0.0180732828	-0.230644
H	 0.995209701	 1.716141097	-0.0661267748	 0.280049
H	-0.7171839238	 1.9096020642	-0.0684688432	 0.275888
H	-2.1868688204	-0.2262037234	 0.0385257082	 0.096906
H	-1.9954732915	-2.7365448321	-0.0323058502	 0.115909
H	 2.3624748531	-3.5016048047	-0.0422193814	 0.232453
90.7212	181.1982	305.4151	336.0707	434.3669	446.8895	504.2935	541.0754	572.5354	711.9714	747.1176	764.6658	768.9553	852.285	892.5322	978.9055	1005.6244	1027.6917	1096.2499	1114.0875	1238.3961	1361.9611	1415.8453	1454.7591	1575.0827	1638.1473	1677.6558	1742.7696	3129.5328	3235.9099	3522.0321	3610.5479	3738.0833
NC1=CC=NC(=N)O1	N[C@@H]1C=CN=C([NH])O1	
InChI=1S/C4H5N3O/c5-3-1-2-7-4(6)8-3/h1-2,6H,5H2	InChI=1S/C4H6N3O/c5-3-1-2-7-4(6)8-3/h1-3,6H,5H2/t3-/m0/s1
