14
gdb 4981	3.42187	2.27012	1.36652	3.2207	67.82	-0.2044	0.0001	0.2044	839.4815	0.109917	-378.781043	-378.774316	-378.773372	-378.811485	26.453	
N	-0.031461212	 1.4218330235	-0.1297203272	-0.597255
C	-0.0132305996	 0.0309681853	-0.0507584647	 0.201548
C	-1.1731820808	-0.7426364578	 0.0341894944	-0.056371
N	-1.2008166771	-2.0771768408	 0.0531877817	-0.277327
C	-0.0323889084	-2.713785798	-0.0115767764	-0.00542
C	 1.1925993779	-2.0537061852	-0.0914464568	-0.252981
C	 1.2049085709	-0.6666022458	-0.1100061131	 0.350809
O	 2.3378766841	 0.0902024801	-0.1754599057	-0.450627
H	 0.8324552742	 1.8587113999	 0.1577381405	 0.259153
H	-0.8373719515	 1.8551378291	 0.2971650983	 0.248977
H	-2.1364283217	-0.2365532387	 0.0881840433	 0.092517
H	-0.0653959636	-3.7998428485	 0.00237851	 0.101224
H	 2.1227100464	-2.6138498322	-0.1351730401	 0.084138
H	 3.1074651312	-0.4880436209	-0.1918355742	 0.301617
184.2561	286.4025	299.4885	320.8296	364.3537	441.9551	457.4276	540.6554	597.0136	616.996	642.2034	772.1283	793.9384	824.2255	876.0717	921.2753	949.7856	1077.8838	1098.28	1168.8673	1227.9833	1297.156	1324.8226	1354.7132	1372.8309	1465.2882	1545.5076	1618.1638	1640.2046	1658.2309	3130.7154	3154.4946	3171.7591	3562.3367	3664.5999	3825.0988
NC1=CN=CC=C1O	Nc1cnccc1O	
InChI=1S/C5H6N2O/c6-4-3-7-2-1-5(4)8/h1-3H,6H2,(H,7,8)	InChI=1S/C5H6N2O/c6-4-3-7-2-1-5(4)8/h1-3H,6H2,(H,7,8)
