16
gdb 1525	7.97544	1.26136	1.11798	1.8885	57.93	-0.2448	0.0173	0.2621	1055.0356	0.135625	-362.946034	-362.937343	-362.936399	-362.980507	28.803	
C	 0.0155860755	 1.4918938775	 0.1308280115	-0.390737
C	 0.0581864774	-0.017232295	-0.01035988	-0.040232
O	 0.6882595372	-0.5498671053	 1.1735455454	-0.240238
C	 0.8142216179	-1.8880556537	 1.225412445	 0.416694
O	 0.4388242935	-2.6391756887	 0.359595067	-0.360868
C	 1.4932915055	-2.3233791468	 2.5224804131	-0.272719
N	 1.6762209198	-3.7557960672	 2.6733997497	-0.485939
H	 1.0241834973	 1.904148332	 0.2245119371	 0.13031
H	-0.4571610168	 1.9340408055	-0.7511973292	 0.123894
H	-0.5590872734	 1.7856315567	 1.0137023861	 0.130309
H	-0.9430145277	-0.4498143129	-0.1026180695	 0.122112
H	 0.6319467691	-0.3318940773	-0.8877594288	 0.122112
H	 2.4623299274	-1.814099433	 2.5826333815	 0.137356
H	 0.9033717943	-1.9313980243	 3.3593669052	 0.137362
H	 0.7716547684	-4.213022116	 2.595580326	 0.235296
H	 2.2074113947	-4.1050599913	 1.88017644	 0.235287
28.2324	59.4184	122.4084	150.0959	207.1815	259.6006	291.8035	357.1279	450.8506	577.2278	698.6114	807.5599	881.6559	907.2047	920.9612	956.8702	1049.9105	1134.4029	1154.4295	1177.2928	1183.3919	1222.1156	1290.9979	1369.6324	1388.2694	1400.7177	1424.5013	1456.0371	1485.8688	1496.3963	1520.1847	1678.4933	1817.2763	3041.9972	3046.4547	3051.8031	3077.4555	3089.6738	3120.634	3126.4877	3492.2918	3558.9347
CCOC(=O)CN	CCOC(=O)CN	
InChI=1S/C4H9NO2/c1-2-7-4(6)3-5/h2-3,5H2,1H3	InChI=1S/C4H9NO2/c1-2-7-4(6)3-5/h2-3,5H2,1H3
