16
gdb 3403	3.86128	2.7671	2.21176	1.7535	60.18	-0.2295	0.0584	0.2879	668.0743	0.137174	-325.722723	-325.715923	-325.714979	-325.75301	25.902	
C	-0.0786130051	 1.5615752203	 0.0833950976	-0.426845
C	 0.0617013901	 0.0641290548	-0.083159025	 0.029101
C	 0.5858297659	-0.6543444132	-1.2669730128	-0.066206
C	 1.7604482445	 0.0376220449	-1.9367238768	 0.104842
O	 1.4343527698	 1.2104381721	-2.6546791328	-0.426579
C	 2.418688949	 0.1213475807	-0.5303888191	-0.208929
N	 1.3154098698	-0.699359889	 0.0846839993	-0.151807
H	 0.5843005809	 2.1260619056	-0.5707946092	 0.143517
H	-1.1048276586	 1.8538466916	-0.1619980452	 0.121495
H	 0.1078128107	 1.8492576468	 1.1245504168	 0.11778
H	-0.7398071095	-0.4884819232	 0.4060399698	 0.09471
H	 0.0864633471	-1.5288397772	-1.6729833782	 0.08965
H	 2.3079170154	-0.6666012553	-2.5757222721	 0.082809
H	 2.2238243469	 1.5111129175	-3.116054471	 0.284887
H	 3.3667506393	-0.4146140054	-0.4503931322	 0.10577
H	 2.5329059939	 1.1223348892	-0.1059218591	 0.105803
149.0856	195.5424	260.2792	281.2458	330.9467	406.3883	484.6083	612.6302	706.4676	719.4302	773.3441	868.0676	909.1142	969.1421	984.5696	1008.2113	1056.9183	1080.9573	1114.5539	1130.8955	1162.787	1200.1042	1215.8172	1260.4613	1282.4253	1315.7808	1363.8262	1413.2712	1434.6014	1444.4574	1489.7591	1498.3957	1513.4189	3020.7342	3037.2569	3060.8714	3094.4289	3111.8019	3116.1568	3156.2767	3162.142	3815.3357
CC1C2C(O)CN12	C[C@H]1[C@H]2[C@@H](O)CN12	
InChI=1S/C5H9NO/c1-3-5-4(7)2-6(3)5/h3-5,7H,2H2,1H3	InChI=1S/C5H9NO/c1-3-5-4(7)2-6(3)5/h3-5,7H,2H2,1H3/t3-,4-,5-,6?/m0/s1
