12
gdb 3401	5.23097	2.44088	2.28337	2.4004	51.56	-0.256	0.0095	0.2654	607.4024	0.090176	-360.469577	-360.46378	-360.462836	-360.499053	22.068	
O	 0.0024214085	 1.3857200418	-0.0336265883	-0.419276
C	-0.0631501913	 0.0068627644	 0.0051977271	 0.133425
C	-0.4867950089	-0.7546232031	 1.2004350743	 0.0117
O	-1.500795535	 0.025160972	 1.8934855101	-0.293225
C	-2.3794795957	-0.1501792043	 0.8060772323	 0.449757
N	-3.5897368026	 0.1445822785	 0.7007109415	-0.545465
C	-1.3667940443	-0.8229225989	-0.0501081389	-0.257552
H	-0.4759689408	 1.718104765	 0.7372631748	 0.302225
H	 0.7299061715	-0.4429497846	-0.5854992232	 0.128862
H	 0.030163343	-1.5101978565	 1.777440092	 0.127939
H	-3.9446244314	 0.5887246643	 1.5487372695	 0.2346
H	-1.546154533	-1.6046088185	-0.7733789912	 0.127012
141.381	243.4843	388.4943	415.2454	436.7487	652.4564	687.488	724.4044	779.6389	813.1007	864.0069	892.6795	945.5134	959.7156	1003.66	1030.0084	1059.3244	1086.9688	1171.3533	1186.5235	1286.8529	1301.039	1354.5806	1458.4132	1837.5003	3166.1746	3204.5435	3233.2405	3486.2176	3772.1018
OC1C2OC(=N)C12	O[C@H]1[C@H]2O[C]([NH])[C@@H]12	
InChI=1S/C4H5NO2/c5-4-1-2(6)3(1)7-4/h1-3,5-6H	InChI=1S/C4H5NO2/c5-4-1-2(6)3(1)7-4/h1-3,5-6H/t1-,2+,3-/m0/s1
