11
gdb 720	7.20593	5.64602	5.53085	1.9051	47.5	-0.2152	0.0669	0.2821	344.2262	0.085878	-248.018573	-248.014653	-248.013709	-248.045371	15.652	
C	-0.0431527428	 1.5402727287	 0.0086465298	-0.106142
C	-0.0581093069	 0.7820061756	-1.3271394255	-0.106144
C	 0.0158272268	 0.0352618731	-0.0208794617	-0.00411
N	 1.5453482887	 0.0256571048	-0.0325461031	-0.17949
C	 1.5058402896	 1.5325153621	-0.0328411197	-0.045663
C	 1.4913671668	 0.7987463777	-1.3254505658	-0.045663
H	-0.7782005893	 2.2171299288	 0.4191020905	 0.097412
H	-0.8064750696	 0.7836588003	-2.1061457338	 0.097412
H	-0.6048078877	-0.7331021462	 0.4222354746	 0.100662
H	 2.268949359	 2.1299589353	 0.4513664402	 0.095863
H	 2.2403881853	 0.6819552997	-2.0994394654	 0.095863
646.845	722.7498	758.0351	764.6813	808.4228	816.8966	856.9662	879.7419	887.108	960.8047	968.3834	989.0901	1009.7634	1019.5758	1028.9536	1073.7456	1151.8769	1175.3572	1233.5969	1275.347	1318.1966	1346.0122	3175.833	3189.3011	3192.0234	3217.4798	3229.4025
C12C3C1N1C2C31	[C@H]12[C@@H]3[C@H]1N1[C@H]2[C@H]31	
InChI=1S/C5H5N/c1-2-3(1)6-4(1)5(2)6/h1-5H	InChI=1S/C5H5N/c1-2-3(1)6-4(1)5(2)6/h1-5H/t1-,2+,3-,4+,5-,6?
