19
gdb 1293	6.89189	1.00495	0.92217	1.7364	64.63	-0.2581	0.0724	0.3304	1259.7952	0.169494	-348.052763	-348.043488	-348.042544	-348.086794	32.445	
C	-0.0329280719	 1.5462461787	-0.0247220982	-0.401905
C	-0.0061249194	 0.0174366584	-0.0022213311	 0.13189
O	 0.6725962633	-0.4998552403	-1.145879443	-0.432259
C	 0.7215029586	-0.5325990255	 1.2242659214	-0.170976
C	 0.6826028878	-2.0601235002	 1.3175334754	-0.166377
C	 1.4513442789	-2.5954960838	 2.5172270712	-0.075973
O	 1.3305193382	-4.0107952987	 2.5219619324	-0.421633
H	 0.9863843833	 1.9455949388	-0.028338031	 0.122947
H	-0.5455661777	 1.9149245388	-0.9209096521	 0.102075
H	-0.5620766705	 1.9455742364	 0.8469437188	 0.113475
H	-1.0448588662	-0.3558410645	 0.0141519651	 0.062312
H	 0.2077994266	-0.1953458021	-1.9312316679	 0.280401
H	 1.7626284164	-0.1850419968	 1.1840206017	 0.099662
H	 0.2730063245	-0.0880157651	 2.1218907123	 0.089394
H	-0.3561708991	-2.4066586094	 1.3892950247	 0.097266
H	 1.0984311029	-2.4942013165	 0.4037236873	 0.126115
H	 2.5076412962	-2.2863027016	 2.4494057578	 0.082812
H	 1.0465922419	-2.1600586345	 3.4467377765	 0.07752
H	 1.8315039361	-4.3519362521	 3.2682967088	 0.283255
71.5363	80.8748	129.7971	152.9327	244.5512	260.59	277.0329	304.7319	309.6817	444.0529	470.7163	514.609	760.9281	842.1375	869.6622	944.7609	1004.7	1016.6785	1053.9252	1075.8168	1088.2313	1128.7919	1161.9398	1208.5074	1238.4425	1277.2691	1300.6131	1313.683	1325.0484	1367.2874	1393.4391	1406.1773	1429.567	1463.5582	1474.4123	1493.3094	1498.7111	1502.4034	1529.3197	2948.6582	2951.8064	2977.4896	3015.8826	3026.6035	3035.5897	3056.2398	3091.8683	3101.327	3110.5185	3822.6591	3830.2534
CC(O)CCCO	C[C@@H](O)CCCO	
InChI=1S/C5H12O2/c1-5(7)3-2-4-6/h5-7H,2-4H2,1H3	InChI=1S/C5H12O2/c1-5(7)3-2-4-6/h5-7H,2-4H2,1H3/t5-/m1/s1
