16
gdb 900	6.6962	1.99188	1.56575	1.8384	68.21	-0.1961	0.0494	0.2455	805.9643	0.137493	-288.680991	-288.67366	-288.672716	-288.712459	26.255	
C	-0.0262910029	 1.4539772713	 0.0084629638	-0.33385
N	-0.0512513809	 0.0081870224	-0.0073186868	 0.028947
C	 0.03364705	-0.7802727637	-1.1267919513	-0.085629
C	 0.0891559822	-2.0947587886	-0.7270129131	-0.261654
C	 0.0409551981	-2.1163196892	 0.6987220118	 0.270819
C	 0.0584180854	-3.3244631015	 1.5866054413	-0.497185
C	-0.0403613372	-0.8019901336	 1.1037957876	-0.190324
H	 0.9912843631	 1.8465555842	 0.1247697532	 0.134923
H	-0.4413303904	 1.8368300139	-0.9269108639	 0.137821
H	-0.639053953	 1.8277512897	 0.8331292944	 0.137751
H	 0.0463500183	-0.3351694227	-2.1096187139	 0.109241
H	 0.1402588942	-2.9528155986	-1.3809869591	 0.086745
H	 0.9647593695	-3.9240251911	 1.4401396019	 0.121204
H	 0.0202568118	-3.0394369195	 2.6423738808	 0.114486
H	-0.7947678126	-3.9858582048	 1.3936355755	 0.121225
H	-0.0934443355	-0.3756982979	 2.0941016578	 0.105478
87.1462	102.6738	158.8014	262.8322	274.5254	401.5484	597.0245	614.5408	637.4123	679.2801	717.8488	761.5285	802.8537	980.3645	1012.1332	1016.8703	1062.2355	1077.9092	1108.0609	1148.5793	1193.6268	1272.7162	1371.7551	1400.4117	1415.3312	1422.9793	1454.9953	1484.0909	1488.2439	1500.1033	1515.2507	1546.8445	1609.3429	3021.2609	3024.3516	3068.0485	3092.5164	3100.1346	3126.8784	3234.4147	3245.8957	3259.0617
CN1C=CC(C)=C1	Cn1ccc(C)c1	
InChI=1S/C6H9N/c1-6-3-4-7(2)5-6/h3-5H,1-2H3	InChI=1S/C6H9N/c1-6-3-4-7(2)5-6/h3-5H,1-2H3
