16
gdb 2243	4.80131	2.64764	2.1585	1.274	59.95	-0.2445	0.0925	0.337	662.2511	0.138519	-325.760797	-325.754485	-325.753541	-325.790579	24.246	
C	-0.009842886	 1.5111797862	-0.0059199658	-0.474363
C	-0.0197822438	 0.0080140083	 0.0653475281	 0.321045
C	-1.2939561221	-0.7541036084	-0.2758797143	-0.142285
O	-1.0850454373	-2.0865303552	 0.1831776354	-0.258529
C	-0.2465480085	-2.0214831519	 1.3359723225	-0.107334
C	 0.6547613901	-0.825007258	 1.0982191671	-0.079335
N	 1.2289357436	-0.7035737502	-0.2496060652	-0.371155
H	 0.9603503932	 1.9003102194	 0.3111015584	 0.134258
H	-0.1883818497	 1.8566710777	-1.0307591564	 0.122313
H	-0.787351557	 1.9426418329	 0.6341715151	 0.116344
H	-2.1551815442	-0.2837489287	 0.2273739097	 0.093075
H	-1.5092062761	-0.806522024	-1.3491078615	 0.110107
H	-0.8340815836	-1.8749486451	 2.257317879	 0.096373
H	 0.2800118112	-2.9790797886	 1.410358819	 0.113155
H	 1.2378420432	-0.4153472265	 1.917042604	 0.093
H	 1.027414547	-1.548632848	-0.7835318851	 0.23333
187.2064	222.6374	258.437	309.7499	394.7641	443.8383	582.7368	704.6194	752.6428	852.4873	891.1885	929.6645	947.9375	981.7201	1004.8611	1050.7794	1082.2137	1095.4838	1124.8115	1152.5995	1192.7917	1219.1492	1261.0237	1293.7296	1318.7067	1349.9136	1368.7376	1415.5626	1458.7358	1488.1369	1496.8795	1505.8901	1518.8153	2966.4547	2974.4661	3031.1787	3061.8397	3067.71	3089.5551	3125.3711	3163.4302	3464.408
CC12COCC1N2	C[C@]12COC[C@H]1N2	
InChI=1S/C5H9NO/c1-5-3-7-2-4(5)6-5/h4,6H,2-3H2,1H3	InChI=1S/C5H9NO/c1-5-3-7-2-4(5)6-5/h4,6H,2-3H2,1H3/t4-,5+/m1/s1
