17
gdb 2038	4.47052	2.54749	2.25487	1.5845	63.49	-0.2303	0.0903	0.3206	684.2127	0.14714	-309.685148	-309.678177	-309.677232	-309.715353	27.226	
C	-0.0531258956	 1.5595213588	 0.0371484583	-0.430021
C	 0.0356408256	 0.0426715468	 0.08683746	 0.416325
C	-1.2933484181	-0.6220515219	-0.248380757	-0.420891
O	 1.073681136	-0.4738411966	-0.8235393306	-0.334307
C	 1.666233957	-1.2085069126	 0.2464234991	 0.109735
C	 2.214154684	-0.2935332406	 1.2939471493	-0.313577
C	 0.7358261618	-0.6281886616	 1.2809253417	-0.159115
H	 0.8987799063	 2.0275860463	 0.2968707902	 0.119252
H	-0.3287862701	 1.8872214588	-0.9706434418	 0.124245
H	-0.8180712885	 1.9200161754	 0.7329467987	 0.115769
H	-1.6253121649	-0.3209787493	-1.2466484119	 0.12225
H	-1.1940395671	-1.7106173084	-0.230505496	 0.120079
H	-2.0647565141	-0.3313678839	 0.4736136455	 0.110979
H	 2.0066636373	-2.2178080906	 0.0453716149	 0.099352
H	 2.7698346653	-0.7756120254	 2.0929268545	 0.112243
H	 2.5776267444	 0.6903533976	 1.0131534142	 0.114841
H	 0.2271029207	-1.0942100227	 2.1147539909	 0.092842
184.3112	211.6463	235.2516	267.0588	347.6202	380.0058	481.8427	499.8576	638.7757	755.91	794.436	842.9351	892.9454	931.1577	955.7189	973.2589	990.9106	1001.7642	1033.0749	1049.0416	1063.7559	1086.0099	1164.5159	1185.0829	1228.9699	1262.6662	1314.4763	1353.7349	1399.4427	1413.7411	1469.1456	1476.1066	1482.284	1494.6984	1501.5857	3032.488	3040.4862	3100.6841	3108.0302	3117.0797	3119.957	3127.3855	3174.5507	3194.4694	3207.9277
CC1(C)OC2CC12	CC1(C)O[C@H]2C[C@@H]12	
InChI=1S/C6H10O/c1-6(2)4-3-5(4)7-6/h4-5H,3H2,1-2H3	InChI=1S/C6H10O/c1-6(2)4-3-5(4)7-6/h4-5H,3H2,1-2H3/t4-,5+/m1/s1
