19
gdb 2359	4.57634	1.91281	1.74547	1.5783	66.96	-0.2407	0.0792	0.3199	830.3351	0.171134	-310.908354	-310.900365	-310.899421	-310.940715	28.908	
C	 0.038399376	 1.5305647591	-0.0117989351	-0.388872
C	 0.02627255	-0.0057180983	-0.0477589452	 0.013691
C	 0.7423708625	-0.5260561251	-1.3009290259	-0.395507
C	 0.6223715368	-0.5501951364	 1.2510945232	 0.178589
C	 0.8381682353	-2.0693573783	 1.4484263911	-0.311635
C	 2.311522718	-1.6836453366	 1.6812041531	-0.054253
O	 2.0489169476	-0.3011324019	 1.3664031463	-0.295312
H	 1.0657250235	 1.9002543352	 0.0696215657	 0.134446
H	-0.4023858518	 1.9501180057	-0.9214598197	 0.107537
H	-0.5255428088	 1.9150866827	 0.8447324065	 0.107663
H	-1.0202195544	-0.3453377221	-0.0697401827	 0.070335
H	 1.8018582745	-0.2555841226	-1.2718129703	 0.1318
H	 0.6715754361	-1.6138311865	-1.3986765137	 0.107131
H	 0.3037152404	-0.0887556152	-2.2031342701	 0.109557
H	 0.0930446069	-0.0911054049	 2.0998308433	 0.065466
H	 0.3165295457	-2.5149496566	 2.2967028795	 0.10707
H	 0.6607181305	-2.6786530481	 0.5610098147	 0.110684
H	 2.6652795073	-1.8056389547	 2.7132505662	 0.099105
H	 3.0486757841	-2.1254075154	 1.000506113	 0.102505
67.6487	85.7316	203.1496	214.08	257.3963	283.1277	360.113	434.1036	578.7902	698.2756	797.4391	843.2246	899.2124	924.6972	935.8609	964.5372	978.9147	1019.9075	1034.9146	1081.1591	1128.5307	1153.982	1174.4563	1205.8907	1216.863	1254.2561	1285.2355	1325.0334	1344.3561	1378.6335	1384.1382	1398.9099	1422.4716	1483.1688	1491.2943	1496.9977	1507.029	1515.5015	1531.4793	2980.1373	2998.2895	3012.1346	3031.5974	3038.7391	3053.7157	3082.6617	3098.8818	3101.5919	3108.0347	3117.165	3135.8478
CC(C)C1CCO1	CC(C)[C@H]1CCO1	
InChI=1S/C6H12O/c1-5(2)6-3-4-7-6/h5-6H,3-4H2,1-2H3	InChI=1S/C6H12O/c1-5(2)6-3-4-7-6/h5-6H,3-4H2,1-2H3/t6-/m1/s1
