16
gdb 534	14.90738	1.23565	1.20615	2.8209	58.27	-0.248	-0.0188	0.2292	976.3209	0.141084	-271.652242	-271.644564	-271.64362	-271.684489	25.654	
C	 0.0516153539	 1.5709101797	 0.0956620827	-0.382231
C	 0.0056837942	 0.0428355094	 0.0172396202	-0.160539
C	-1.4214061408	-0.5076027948	-0.0810728196	-0.171878
C	-1.4685132499	-2.0430013158	-0.1705554932	-0.270762
C	-2.8857712095	-2.5655648458	-0.1541265115	 0.159225
O	-3.3784014992	-3.2667874258	-0.9996962188	-0.237595
H	 1.0814042941	 1.9346032072	 0.163839193	 0.115858
H	-0.4044950668	 2.0268723858	-0.789943917	 0.117717
H	-0.4908125674	 1.9394095256	 0.9733665356	 0.115714
H	 0.5849220831	-0.2994566726	-0.8498681781	 0.10186
H	 0.4971415191	-0.3876795347	 0.8997035478	 0.097546
H	-2.0010729829	-0.1750939205	 0.7909607558	 0.10051
H	-1.9193235982	-0.0790669624	-0.9604724618	 0.11027
H	-0.96988333	-2.4106412538	-1.0723142808	 0.120617
H	-0.9506214278	-2.4679092287	 0.7023718838	 0.116228
H	-3.4804550618	-2.2375813428	 0.7323984318	 0.067459
60.3461	87.9864	121.9424	179.572	243.2624	351.0832	370.3081	525.0602	737.0409	782.5771	849.8995	895.6853	968.8352	1014.0893	1034.7538	1064.5678	1139.8072	1164.4465	1236.505	1264.1688	1306.1249	1333.3018	1346.9514	1394.5648	1414.4343	1431.8911	1463.712	1485.7666	1497.0123	1499.6053	1511.6453	1837.1642	2843.6841	3006.1936	3011.8615	3020.984	3031.3871	3039.4795	3060.9984	3095.869	3099.2774	3104.6988
CCCCC=O	CCCCC=O	
InChI=1S/C5H10O/c1-2-3-4-5-6/h5H,2-4H2,1H3	InChI=1S/C5H10O/c1-2-3-4-5-6/h5H,2-4H2,1H3
