14
gdb 2131	3.93021	3.13743	1.78323	2.9725	62.02	-0.2417	-0.0216	0.2201	692.0784	0.114427	-324.61015	-324.603684	-324.60274	-324.640433	23.651	
C	 0.0111132348	 1.5104213488	-0.0262042583	-0.488357
C	-0.0257205858	 0.0197089175	-0.0237749025	 0.272764
C	-1.0548873545	-0.8250061017	-0.1304361555	-0.210575
C	-0.5552009128	-2.2371509554	-0.0714509217	-0.134825
O	 0.8622339173	-2.1158686665	 0.0797506251	-0.244965
C	 1.2041928347	-0.7868819319	 0.111104253	 0.346134
N	 2.3812445427	-0.3360014554	 0.2354635769	-0.547484
H	 0.645109363	 1.8752441529	-0.8408820232	 0.148511
H	-0.988401489	 1.9378199534	-0.1349510471	 0.119297
H	 0.459066132	 1.8825791815	 0.9008958523	 0.148518
H	-2.1012698474	-0.5725003757	-0.2432428241	 0.114624
H	-0.9591923959	-2.8024370002	 0.7794185226	 0.12712
H	-0.7704783121	-2.8093714065	-0.9841163854	 0.12713
H	 3.0556597631	-1.0986613809	 0.310925418	 0.222109
125.1324	180.7937	254.0569	262.6197	387.1296	486.3633	608.9655	727.9168	757.2483	801.0827	830.852	875.8323	948.426	988.1316	1031.045	1033.7489	1071.3661	1091.3821	1196.2418	1196.4489	1255.4172	1356.3626	1396.3297	1416.7895	1471.527	1484.4392	1503.2707	1714.745	1756.1203	3009.3676	3036.7551	3041.9656	3098.6097	3127.008	3221.2208	3483.1221
CC1=CCOC1=N	CC1=C(OC[CH]1)[NH]	
InChI=1S/C5H7NO/c1-4-2-3-7-5(4)6/h2,6H,3H2,1H3	InChI=1S/C5H7NO/c1-4-2-3-7-5(4)6/h2,6H,3H2,1H3
