10
gdb 3638	9.65334	1.91972	1.60128	2.4093	56.59	-0.2496	-0.0317	0.2179	693.5628	0.066987	-322.135797	-322.130212	-322.129268	-322.165112	20.451	
C	 0.0311868494	-1.2118395256	-0.0044454336	-0.438217
C	-0.0075517237	-0.0090043089	 0.0028325954	 0.244309
C	-0.0279221196	 1.40194144	 0.011036312	 0.037052
C	-1.1003026592	 2.250070843	 0.029895186	-0.019257
O	-0.6970342846	 3.5216368155	 0.0317519032	-0.154362
N	 0.6973551917	 3.560515646	 0.0136493848	-0.116419
C	 1.0786052414	 2.3115646706	 0.0016131817	-0.064141
H	 0.0586025023	-2.2730628318	-0.0107796656	 0.198692
H	-2.1653464494	 2.0815893052	 0.0429404534	 0.165731
H	 2.1323099317	 2.0741352058	-0.0135672127	 0.146611
164.0143	177.0465	466.9154	514.6004	576.2747	579.9063	615.7849	663.1861	669.6698	846.3712	886.2972	911.5338	932.3593	1020.3981	1161.3746	1194.7941	1290.109	1348.7671	1478.9331	1625.2291	2242.7264	3255.7492	3275.7728	3506.1771
C#CC1=CON=C1	C#Cc1conc1	
InChI=1S/C5H3NO/c1-2-5-3-6-7-4-5/h1,3-4H	InChI=1S/C5H3NO/c1-2-5-3-6-7-4-5/h1,3-4H
