15
gdb 1984	6.4653	1.46215	1.35247	3.3679	57.74	-0.2487	-0.0144	0.2343	910.2191	0.122566	-345.651109	-345.643369	-345.642425	-345.6841	26.453	
C	-0.1295542987	 1.408845847	-0.3209129727	-0.477805
C	 0.0810781883	-0.0591027695	-0.0074406588	 0.395136
O	 1.1777445811	-0.5665621487	 0.0087586114	-0.292652
C	-1.1789984241	-0.8658179558	 0.3170587757	-0.342967
C	-1.0068124342	-2.3466026783	 0.0871613704	 0.11479
C	-2.1584458442	-3.2350060275	-0.1004269459	-0.187781
O	-1.3623920498	-2.8252528545	-1.2132774359	-0.233624
H	 0.8307672491	 1.9226530096	-0.3759890509	 0.144876
H	-0.6490593309	 1.5045303376	-1.2819374854	 0.148984
H	-0.7689105818	 1.8816001983	 0.4328744027	 0.134989
H	-1.4059342082	-0.6728716691	 1.3766264508	 0.133179
H	-2.033978117	-0.491814241	-0.2561067139	 0.120891
H	-0.079922042	-2.7632492159	 0.4763316838	 0.115373
H	-2.0813692989	-4.2868204196	 0.1715728913	 0.117355
H	-3.1674058088	-2.8238572026	-0.0707976126	 0.109256
43.11	70.7964	138.5401	171.4895	332.56	364.0769	423.7189	476.3954	594.6108	778.5308	817.6959	846.7265	887.6007	956.0961	965.0925	1035.8921	1098.2757	1125.5866	1158.8785	1167.3738	1179.6226	1233.854	1297.42	1325.4927	1384.0546	1430.8408	1450.351	1463.2725	1476.0118	1533.0151	1817.5038	3009.6491	3034.4301	3078.2624	3079.8023	3094.9638	3139.9603	3153.1713	3165.3914
CC(=O)CC1CO1	CC(=O)C[C@H]1CO1	
InChI=1S/C5H8O2/c1-4(6)2-5-3-7-5/h5H,2-3H2,1H3	InChI=1S/C5H8O2/c1-4(6)2-5-3-7-5/h5H,2-3H2,1H3/t5-/m0/s1
