7
gdb 790	10.15061	3.99473	2.86659	2.5588	33.31	-0.3005	-0.0778	0.2227	397.7928	0.038285	-353.283458	-353.279122	-353.278177	-353.311065	14.948	
O	 0.1134217272	 1.3192998156	-0.0961996713	-0.381256
C	 0.0644338796	-0.0044268458	-0.0903083796	 0.520031
N	-0.0586799244	-0.7363423898	-1.1613967212	-0.168633
O	-0.0614546955	-2.0076157634	-0.662723007	-0.13192
N	 0.0616939633	-1.9691226217	 0.7065313651	 0.06448
N	 0.1390757518	-0.7606000047	 1.0607579121	-0.235119
H	 0.206365668	 1.6218982998	 0.8163268919	 0.332417
338.3976	383.6452	432.4937	659.0775	745.9199	770.3842	790.5623	941.678	1064.7645	1097.5762	1215.3678	1373.281	1504.1676	1683.8289	3803.9867
OC1=NON=N1	Oc1nonn1	
InChI=1S/CHN3O2/c5-1-2-4-6-3-1/h(H,3,5)	InChI=1S/CHN3O2/c5-1-2-4-6-3-1/h(H,3,5)
