12
gdb 3960	7.52407	1.94344	1.60367	2.6536	51.59	-0.2619	-0.0093	0.2526	720.1415	0.090699	-360.496984	-360.490747	-360.489803	-360.52764	21.848	
O	 0.0346760907	 1.3626086237	 0.4408970707	-0.416671
C	 0.0002774409	 0.0357162658	-0.0621326094	-0.186754
C	-1.4074969872	-0.4615567431	 0.0506402338	 0.394257
N	-1.648065789	-1.7093735814	 0.3747371648	-0.204332
O	-3.0324820167	-1.8445458208	 0.3496284288	-0.162847
C	-3.5757178349	-0.6628982105	 0.0209713956	 0.080752
C	-2.6101299621	 0.265309096	-0.1858525325	-0.312003
H	 0.9189247368	 1.7116607412	 0.2952734984	 0.294423
H	 0.3069441569	 0.006310876	-1.1201497262	 0.109836
H	 0.6622709168	-0.6428458986	 0.4928065429	 0.121438
H	-4.6536990584	-0.6387953272	-0.0212795304	 0.150822
H	-2.7145189638	 1.3036210089	-0.4481302265	 0.131079
59.0129	184.5808	243.3812	308.1768	445.4847	614.247	653.2479	724.9375	805.4621	874.4518	913.9482	944.4369	996.08	1030.7108	1073.7917	1087.8529	1156.1977	1230.9512	1244.5221	1300.029	1438.6457	1457.7467	1502.0885	1512.3951	1613.6371	2972.8296	3028.7512	3263.5197	3298.5619	3832.4932
OCC1=NOC=C1	OCc1nocc1	
InChI=1S/C4H5NO2/c6-3-4-1-2-7-5-4/h1-2,6H,3H2	InChI=1S/C4H5NO2/c6-3-4-1-2-7-5-4/h1-2,6H,3H2
