10
gdb 1012	9.26235	2.03346	1.6674	4.7027	56.92	-0.2523	-0.0466	0.2057	670.0093	0.068754	-322.216227	-322.210914	-322.20997	-322.245374	19.154	
N	 0.105643099	-1.1268634049	-0.0047010339	-0.333841
C	 0.0245806102	 0.0288275465	 0.0026598767	 0.22731
C	-0.1026643468	 1.4340106189	 0.0118851624	 0.269428
C	-1.1977158841	 2.2532872624	 0.0314675147	-0.262222
C	-0.6944862463	 3.5860681891	 0.0314160392	-0.15946
C	 0.6631259767	 3.4750304617	 0.0122766792	-0.007809
O	 1.0434642157	 2.1785849605	 0.0002388212	-0.160825
H	-2.2271530757	 1.9334016246	 0.0439986555	 0.1412
H	-1.2653339873	 4.500510634	 0.0440313351	 0.131992
H	 1.4653164986	 4.1945817671	 0.0050798898	 0.154228
170.2215	180.5568	497.0153	563.0282	579.1515	607.2054	682.3123	777.2178	837.01	882.4467	904.1961	951.1818	1041.8456	1111.7786	1190.2989	1247.4372	1257.8187	1416.3062	1501.8381	1607.2927	2344.6039	3262.9861	3275.2388	3290.3593
N#CC1=CC=CO1	N#Cc1ccco1	
InChI=1S/C5H3NO/c6-4-5-2-1-3-7-5/h1-3H	InChI=1S/C5H3NO/c6-4-5-2-1-3-7-5/h1-3H
