17
gdb 4003	3.46543	1.07039	0.86524	0.909	80.29	-0.2251	-0.0212	0.2039	1350.6201	0.139236	-363.806726	-363.79687	-363.795926	-363.843568	33.44	
C	 0.0752572075	 1.6158612863	-0.0279729155	-0.373668
C	-0.0456871818	 0.082139255	-0.0540377368	-0.275178
C	 0.7106273622	-0.5256665647	-1.2173444289	 0.191131
N	 1.9687057047	-0.8065908342	-1.2109487321	-0.167151
O	 2.5574341708	-0.4836127313	 0.016677774	-0.395294
C	 0.0044704558	-0.7872931133	-2.42619586	-0.020126
C	-0.6612744088	-0.9779260407	-3.4144268831	 0.161515
C	-1.4390072784	-1.219908014	-4.6186503675	-0.50447
H	 1.120291462	 1.9159648299	 0.081236798	 0.136474
H	-0.314577909	 2.0565293736	-0.9506072775	 0.124075
H	-0.4912068504	 2.0297088538	 0.8116697198	 0.114688
H	 0.3537728502	-0.3334341071	 0.8747335166	 0.128696
H	-1.0966299481	-0.2085913191	-0.1334942039	 0.108494
H	 3.4675961475	-0.7682585095	-0.1173890358	 0.309943
H	-1.0451693979	-0.6473533251	-5.4658929645	 0.154652
H	-1.4165211572	-2.2795835623	-4.8968342921	 0.155055
H	-2.4871456791	-0.9335623873	-4.4801303608	 0.151165
13.5613	47.1972	100.0799	116.9856	223.3367	235.4364	296.8552	312.0476	333.2829	419.537	472.8581	478.0468	544.6967	659.1676	735.0678	806.8112	920.2053	986.3226	1041.8752	1047.7494	1053.8616	1088.0324	1102.2484	1270.0573	1301.0469	1346.444	1402.4885	1410.4785	1423.72	1474.6286	1475.1956	1481.3155	1497.4238	1508.1556	1667.3034	2352.5235	3026.253	3042.0074	3060.3037	3086.2752	3090.7036	3102.2125	3113.4525	3130.3816	3819.972
CCC(=NO)C#CC	CCC(=NO)C#CC	
InChI=1S/C6H9NO/c1-3-5-6(4-2)7-8/h8H,4H2,1-2H3	InChI=1S/C6H9NO/c1-3-5-6(4-2)7-8/h8H,4H2,1-2H3
