8
gdb 789	9.95029	3.94579	2.82538	2.7179	35.95	-0.2744	-0.0275	0.2469	412.1914	0.0514	-337.28389	-337.279525	-337.27858	-337.311504	15.356	
O	 0.1151747636	 1.3135262838	-0.0900649632	-0.392252
C	 0.0658481173	-0.0156254721	-0.0715159707	 0.458435
N	-0.051901138	-0.7168259874	-1.171184489	-0.198514
O	-0.0616682961	-2.0376247791	-0.6762621227	-0.151054
C	 0.0510067545	-1.9505654647	 0.6430703831	 0.131098
N	 0.1346458503	-0.7395018969	 1.0970803318	-0.343569
H	 0.2020101678	 1.6088835891	 0.8247130183	 0.322606
H	 0.0619341306	-2.8741585428	 1.2034226524	 0.173248
325.7484	407.4214	443.8726	615.5329	733.2911	771.2392	907.559	920.696	974.4748	1025.5426	1166.2486	1222.7708	1315.0225	1424.1874	1556.6644	1674.75	3265.6986	3811.4707
OC1=NOC=N1	Oc1nocn1	
InChI=1S/C2H2N2O2/c5-2-3-1-6-4-2/h1H,(H,4,5)	InChI=1S/C2H2N2O2/c5-2-3-1-6-4-2/h1H,(H,4,5)
