13
gdb 2659	9.5036	0.93554	0.89808	1.4386	63.88	-0.2507	0.027	0.2778	1229.4204	0.098783	-307.238509	-307.230159	-307.229215	-307.272662	27.893	
O	 0.0681716136	 1.1587445199	 0.8121128503	-0.408837
C	-0.0221299644	 0.1462333282	-0.1829699048	-0.213747
C	-1.3634391155	-0.4233252871	-0.1827708435	 0.101915
C	-2.4629057954	-0.9091312541	-0.197740692	 0.084943
C	-3.8074922304	-1.487295118	-0.2104834271	-0.490861
C	-3.8428992346	-2.9069835752	 0.1467710531	 0.3178
C	-3.8847995091	-4.0714307987	 0.4354016693	-0.444617
H	 0.9670529341	 1.5025539188	 0.7895736672	 0.290076
H	 0.1968421678	 0.5511559441	-1.184641548	 0.116239
H	 0.7067086858	-0.6601733802	-0.0000326369	 0.119552
H	-4.447506902	-0.9230170865	 0.481901451	 0.166267
H	-4.2580791649	-1.3521239091	-1.2034920863	 0.160843
H	-3.916802025	-5.1008253822	 0.6935859576	 0.200426
17.3888	86.8555	132.4045	214.223	244.0501	311.6925	327.7348	370.425	500.4039	574.114	622.7305	649.4136	778.7414	932.4297	944.3919	1027.8242	1049.4728	1149.4059	1230.2668	1247.3888	1257.5015	1335.8268	1450.1737	1460.805	1503.1988	2247.6115	2382.6549	2962.7696	2981.3014	3008.707	3033.3617	3507.2283	3818.2633
OCC#CCC#C	OCC#CCC#C	
InChI=1S/C6H6O/c1-2-3-4-5-6-7/h1,7H,3,6H2	InChI=1S/C6H6O/c1-2-3-4-5-6-7/h1,7H,3,6H2
