15
gdb 1919	5.86137	2.11734	1.85161	1.5198	56.84	-0.2459	0.0733	0.3193	701.3333	0.124521	-345.613396	-345.606614	-345.60567	-345.643626	26.109	
O	-0.123299018	 1.4453110487	-0.0483588177	-0.43112
C	-0.0279865005	 0.0378566357	 0.0157071982	 0.125071
C	 0.2515438301	-0.6227555844	 1.4164288737	-0.340631
C	-1.1185943511	-1.3018693202	 1.3138516186	 0.39759
O	-1.3616234176	-2.6182270786	 1.6645033803	-0.461208
C	-2.2067103138	-0.2800306684	 1.1676048851	-0.334517
C	-1.3797104814	-0.6625281798	-0.0439105958	-0.107715
H	 0.7594255907	 1.8103901811	 0.0693700471	 0.283076
H	 0.6638839287	-0.344892652	-0.7457812618	 0.072092
H	 1.0756728424	-1.3390833818	 1.3788589699	 0.105214
H	 0.3988061849	 0.0681994441	 2.2535980851	 0.087863
H	-1.6644578531	-2.6353504917	 2.5789218272	 0.285591
H	-3.2087210486	-0.6969997052	 1.159633464	 0.110385
H	-2.1207506429	 0.7139335653	 1.5969451203	 0.117542
H	-1.8358596196	-1.0809955927	-0.9319129742	 0.090768
134.8381	244.5339	266.7452	303.1293	389.1531	405.17	434.5057	544.5458	619.0488	700.6064	825.8844	858.8595	910.613	956.1563	964.0317	983.9392	1028.4013	1057.231	1082.2433	1099.0847	1162.8486	1205.8769	1219.7581	1242.9441	1265.4835	1322.9988	1330.4268	1403.5735	1421.035	1469.3226	1504.5449	3011.2825	3040.6502	3110.4633	3119.7615	3195.0686	3211.9186	3795.3101	3816.546
OC1CC2(O)CC12	O[C@H]1C[C@@]2(O)C[C@@H]12	
InChI=1S/C5H8O2/c6-4-2-5(7)1-3(4)5/h3-4,6-7H,1-2H2	InChI=1S/C5H8O2/c6-4-2-5(7)1-3(4)5/h3-4,6-7H,1-2H2/t3-,4-,5-/m0/s1
