15
gdb 2770	3.95433	2.29339	1.65418	4.2177	57.65	-0.2414	-0.0156	0.2257	754.7821	0.124014	-345.645245	-345.637978	-345.637034	-345.676871	25.84	
O	 0.326721736	 1.103570756	-0.6118629	-0.424579
C	 0.0863686041	-0.1177471569	 0.0442929836	 0.140479
C	-0.0770669955	-0.1350874174	 1.5883520902	-0.260085
C	-1.316669656	-1.0482604704	 1.3985089416	-0.24112
C	-1.3742559478	-0.6327940308	-0.112009723	-0.121945
C	-2.3723747933	 0.4721848353	-0.3549880798	 0.18657
O	-3.1982589724	 0.4570045762	-1.2310534246	-0.258596
H	 1.2502980938	 1.3451993779	-0.4901627673	 0.288275
H	 0.7903851398	-0.8945895209	-0.2848769728	 0.078511
H	 0.7543023111	-0.5156276039	 2.186299016	 0.099875
H	-0.3527425536	 0.8585490386	 1.9525551574	 0.115315
H	-1.0856763202	-2.1095638217	 1.5082701817	 0.117264
H	-2.1995078065	-0.8215935218	 2.0003781619	 0.114651
H	-1.5427528582	-1.4188003417	-0.8494271653	 0.090667
H	-2.3192493412	 1.3197292814	 0.3647224905	 0.074718
75.7043	111.9585	210.3018	235.6404	307.9849	385.1502	460.1081	518.4462	660.2436	759.2742	870.4982	886.8297	920.4335	956.5899	994.9829	1020.9581	1094.8621	1125.8671	1163.5954	1203.1855	1213.4059	1243.2782	1261.1135	1267.9958	1316.4554	1328.6647	1420.3249	1438.2253	1479.7443	1497.2733	1830.6069	2877.2761	3001.2617	3060.2891	3071.6052	3105.2676	3111.2045	3129.1187	3820.1463
OC1CCC1C=O	O[C@H]1CC[C@H]1C=O	
InChI=1S/C5H8O2/c6-3-4-1-2-5(4)7/h3-5,7H,1-2H2	InChI=1S/C5H8O2/c6-3-4-1-2-5(4)7/h3-5,7H,1-2H2/t4-,5-/m0/s1
