16
gdb 4848	6.49677	1.30674	1.10562	1.886	69.46	-0.1917	0.0352	0.2269	1075.6951	0.13118	-379.962518	-379.954429	-379.953485	-379.995046	28.702	
C	-0.1430628717	 1.361047184	 0.0011264921	-0.318457
N	 0.1014526185	-0.0724279395	-0.0022943741	-0.386079
C	 0.707025352	-0.6304145755	 1.0867965937	 0.487904
N	 1.3491741632	-0.0325838127	 2.0432990078	-0.354915
C	 1.8113240036	-1.0912079085	 2.8288374013	-0.192785
C	 1.4148093976	-2.2736936997	 2.3132406363	 0.317352
C	 1.5712820643	-3.7012058653	 2.6786864868	-0.49395
O	 0.6852321643	-1.9831090362	 1.1632731737	-0.236953
H	 0.7956423226	 1.8799345066	 0.2042461452	 0.16075
H	-0.5055303021	 1.6582177512	-0.985309674	 0.123633
H	-0.8711701361	 1.67227672	 0.7627744329	 0.123766
H	-0.6133475408	-0.6508669177	-0.4165114219	 0.250546
H	 2.3957588241	-0.916405469	 3.7188808925	 0.112226
H	 0.6039009124	-4.1871079496	 2.8540190137	 0.133596
H	 2.0857710751	-4.2698903416	 1.8949036433	 0.135366
H	 2.1602411932	-3.7790073265	 3.5957798509	 0.137999
96.4281	125.625	163.6762	188.9556	216.6974	300.8494	336.5348	456.537	516.4349	623.8802	671.0573	751.4313	761.5735	845.8521	964.3935	967.8863	1033.0877	1068.0409	1099.6088	1147.3538	1156.772	1203.4763	1233.1977	1256.5198	1340.8952	1419.0495	1454.2403	1470.3155	1482.9282	1491.3062	1508.8021	1538.5813	1664.4779	1676.7779	3010.5193	3023.0118	3069.9106	3098.9595	3123.949	3142.279	3256.9541	3622.3693
CNC1=NC=C(C)O1	CNc1ncc(C)o1	
InChI=1S/C5H8N2O/c1-4-3-7-5(6-2)8-4/h3H,1-2H3,(H,6,7)	InChI=1S/C5H8N2O/c1-4-3-7-5(6-2)8-4/h3H,1-2H3,(H,6,7)
