15
gdb 1536	8.55667	1.12668	1.0143	2.4739	54.13	-0.2464	-0.0109	0.2355	1088.3156	0.12189	-382.788561	-382.779744	-382.7788	-382.824214	28.864	
O	-0.1668498978	 1.4493361592	 0.0114208806	-0.425586
C	 0.0192897234	 0.0413544235	 0.0019880683	-0.072086
C	-1.3637009567	-0.5929505545	 0.0120696326	-0.292616
C	-1.3190553296	-2.1125811575	 0.0034925772	 0.366081
O	-0.2851478306	-2.7341763848	-0.0093384998	-0.279804
C	-2.682157912	-2.8014719842	 0.012263685	-0.166245
O	-2.5107514638	-4.193447497	 0.0039592134	-0.394349
H	 0.7008162932	 1.8635873753	 0.0053957032	 0.287898
H	 0.5705071385	-0.2918253354	-0.8885298833	 0.104109
H	 0.5877548448	-0.3013956795	 0.8779033802	 0.104141
H	-1.9227881994	-0.2506962948	 0.892933728	 0.1299
H	-1.9398911962	-0.2412704922	-0.8539337229	 0.129861
H	-3.2295506639	-2.4433488179	 0.9019795476	 0.107736
H	-3.245126106	-2.4347408884	-0.8641345877	 0.107756
H	-3.3817659138	-4.600613962	 0.0093189877	 0.293205
8.6865	68.6686	103.7804	145.8443	225.4353	271.9899	287.45	342.7915	425.2983	470.805	679.6826	755.07	865.1437	924.5258	986.2059	1053.8324	1096.2923	1106.1226	1150.5565	1204.5918	1237.3423	1256.7687	1262.2717	1307.5289	1350.2394	1444.2678	1450.195	1470.7399	1496.0418	1523.2383	1824.151	2949.6183	2970.542	2999.2444	3027.1202	3028.956	3064.2378	3831.5428	3836.718
OCCC(=O)CO	OCCC(=O)CO	
InChI=1S/C4H8O3/c5-2-1-4(7)3-6/h5-6H,1-3H2	InChI=1S/C4H8O3/c5-2-1-4(7)3-6/h5-6H,1-3H2
