16
gdb 662	6.13317	3.90634	3.01538	0.1319	59.31	-0.2634	0.0842	0.3476	515.3423	0.144832	-234.470922	-234.465379	-234.464435	-234.500807	20.966	
C	-0.0670989185	 1.4401221363	-0.3238207765	-0.217522
C	 1.3804351693	 1.6206011055	 0.2298030073	-0.21752
C	 1.4460014485	 0.107741349	 0.5709447055	-0.001087
C	 0.9419611457	-0.2656450144	 1.990795736	-0.217522
C	-0.5055026246	-0.4462584583	 1.4370301205	-0.21752
C	-0.0142620372	-0.0743606358	 0.0123245434	-0.001084
H	-0.8532364053	 2.0024092684	 0.1899574988	 0.092185
H	-0.1490130183	 1.6495869931	-1.3934785352	 0.097237
H	 2.0988072671	 1.9297386221	-0.5338263199	 0.097236
H	 1.4886877414	 2.2944767614	 1.0855609542	 0.092184
H	 2.3091747644	-0.4441767288	 0.1947116225	 0.057286
H	 1.3734005162	-1.191358473	 2.3802417827	 0.097238
H	 1.0741611512	 0.512079443	 2.7496196915	 0.092186
H	-0.8742286833	-1.4718691204	 1.5202083728	 0.097235
H	-1.2676490987	 0.219768747	 1.8537920268	 0.092184
H	-0.2706577877	-0.765816195	-0.7922771904	 0.057285
24.108	305.7331	365.3363	628.2806	721.5667	747.1111	753.5688	832.7711	875.1713	885.2969	903.8473	932.7618	975.7044	1006.8862	1025.1823	1060.6797	1118.6554	1143.039	1202.2134	1203.932	1223.3457	1241.3476	1252.5639	1263.0936	1286.0333	1297.7276	1300.7731	1319.9653	1469.5386	1479.2783	1485.2095	1498.5069	3042.1596	3043.4487	3048.5522	3051.2901	3074.7282	3085.5179	3088.7287	3093.2156	3104.4903	3112.7431
C1CC2CCC12	C1C[C@H]2CC[C@@H]12	
InChI=1S/C6H10/c1-2-6-4-3-5(1)6/h5-6H,1-4H2	InChI=1S/C6H10/c1-2-6-4-3-5(1)6/h5-6H,1-4H2/t5-,6+
