13
gdb 3140	4.38606	2.79551	1.95569	3.8807	56.5	-0.2387	0.0132	0.2518	651.9723	0.102214	-340.594424	-340.588205	-340.587261	-340.624335	23.089	
N	-0.0724648254	 1.192593448	 0.4123415064	-0.547018
C	-0.0109776175	-0.0138383482	 0.0455754535	 0.319331
N	 0.9467166772	-0.8750669882	-0.5030431615	-0.351748
C	 0.1028347048	-2.0849671956	-0.4152919859	-0.246042
C	-1.0174656822	-1.1473390042	 0.0768558881	 0.372897
C	-2.150331141	-1.3647097729	 0.9741752075	-0.257029
O	-2.3292393223	-1.1036726122	-0.4255634609	-0.252188
H	 0.8159120647	 1.6799896959	 0.2859420848	 0.213103
H	 1.9410781389	-0.8368949996	-0.3340808392	 0.243676
H	-0.08168195	-2.5668438243	-1.3795128649	 0.12744
H	 0.4351111664	-2.8275503551	 0.3185910377	 0.115122
H	-2.3956997238	-2.3756567168	 1.2963545906	 0.120262
H	-2.4551113898	-0.5592210969	 1.6391023637	 0.142194
145.6756	226.6582	248.7014	331.6119	415.6541	484.506	621.2928	687.3016	770.223	831.3193	874.0881	877.3646	946.7346	997.2451	1046.7019	1086.7803	1127.2273	1140.7198	1150.1377	1167.1894	1230.3419	1321.3278	1352.9576	1452.1361	1513.5306	1534.619	1801.7357	3037.426	3088.4523	3093.8969	3184.762	3466.7497	3611.7733
N=C1NCC11CO1	[NH][C]1NC[C@]21CO2	
InChI=1S/C4H6N2O/c5-3-4(1-6-3)2-7-4/h1-2H2,(H2,5,6)	InChI=1S/C4H6N2O/c5-3-4(1-6-3)2-7-4/h1-2H2,(H2,5,6)/t4-/m1/s1
