15
gdb 2414	4.91313	2.40084	2.00986	2.1728	57.06	-0.2502	0.0761	0.3263	670.7171	0.125628	-345.591597	-345.585249	-345.584305	-345.621344	24.863	
O	-0.0264659692	 1.4634995902	-0.0347589195	-0.444847
C	 0.0367237533	 0.0595141752	 0.0219339238	 0.16144
C	-0.0215057153	-0.6578566349	 1.4147790566	-0.155187
C	-1.4925411251	-0.1616857559	 1.5179692994	-0.233768
C	-1.3381115926	-0.657579597	 0.0461779936	-0.094944
C	-0.605360208	-1.8822939559	 0.641353518	 0.148261
O	 0.2011488088	-2.6111291082	-0.2519497808	-0.441974
H	 0.8720072492	 1.8034782423	 0.0051275322	 0.283527
H	 0.7674180084	-0.3421822366	-0.6836573679	 0.083523
H	 0.7359754055	-0.6660588432	 2.2013445957	 0.061172
H	-2.1625713738	-0.7396247176	 2.1607705162	 0.085141
H	-1.6252063769	 0.9099583061	 1.643990294	 0.120261
H	-2.0932953099	-0.6622513093	-0.7401381294	 0.075085
H	-1.2386313515	-2.5442374726	 1.245480262	 0.068076
H	 0.7170886471	-3.2424079325	 0.258603786	 0.284232
231.3976	253.534	261.7984	326.8943	377.1681	384.7628	555.5727	646.677	766.5687	827.9072	858.341	891.7147	904.5886	915.7083	1021.1228	1038.4473	1063.429	1094.8879	1102.4992	1144.5821	1162.4626	1190.8652	1196.9474	1216.074	1244.6704	1254.0053	1308.9335	1318.4393	1425.361	1443.3227	1513.6488	3021.4591	3064.3739	3082.4473	3092.4346	3115.6395	3170.0104	3824.6654	3831.1075
OC1C2CC1C2O	O[C@H]1[C@H]2C[C@@H]1[C@H]2O	
InChI=1S/C5H8O2/c6-4-2-1-3(4)5(2)7/h2-7H,1H2	InChI=1S/C5H8O2/c6-4-2-1-3(4)5(2)7/h2-7H,1H2/t2-,3+,4-,5-
