16
gdb 651	6.86385	3.29296	3.06483	0.1283	60.85	-0.2892	0.1047	0.3939	531.2527	0.144734	-234.447743	-234.442324	-234.44138	-234.476188	21.437	
C	-0.1457572068	 1.5791697598	 0.0024746567	-0.441418
C	 0.0329002511	 0.0689215025	 0.0301365781	 0.081606
C	 1.1837201876	-0.6481419782	-0.7525531303	-0.043587
C	 2.1781957369	-0.1572306661	 0.3404215866	-0.218902
C	 0.9148073961	-0.6457977373	 1.1083431106	-0.043551
C	 0.9213646976	-1.8802490985	 0.1609657017	-0.212716
H	 0.787813084	 2.1316704157	 0.135041426	 0.116686
H	-0.5829416927	 1.8947844763	-0.9515949504	 0.115284
H	-0.832503169	 1.8973091678	 0.7950497825	 0.115293
H	-0.9413429665	-0.415770101	-0.1100163661	 0.057983
H	 1.3409004615	-0.6529859908	-1.8330132751	 0.063126
H	 3.0822734544	-0.7584613792	 0.4718115143	 0.08671
H	 2.417582112	 0.9065568866	 0.3736974385	 0.089779
H	 0.7596602043	-0.6479009474	 2.1891075505	 0.063118
H	-0.0308117805	-2.4010117293	 0.0240226138	 0.085139
H	 1.7500817301	-2.5830174109	 0.2816061225	 0.085449
179.9541	287.5214	336.1648	544.1534	572.6824	757.5582	781.3636	793.2408	855.6341	900.0181	904.9037	1001.4048	1005.8254	1020.5374	1028.8937	1041.6457	1113.1971	1116.6702	1133.3246	1153.6743	1159.7642	1193.1923	1218.0574	1249.7021	1257.1941	1274.2424	1404.5638	1422.1486	1491.6156	1495.4676	1510.6807	1545.5657	3022.6097	3032.7001	3045.7355	3059.3456	3086.7375	3087.5007	3095.1615	3109.6743	3113.4475	3127.4937
CC1C2CC1C2	C[C@H]1[C@H]2C[C@@H]1C2	
InChI=1S/C6H10/c1-4-5-2-6(4)3-5/h4-6H,2-3H2,1H3	InChI=1S/C6H10/c1-4-5-2-6(4)3-5/h4-6H,2-3H2,1H3/t4-,5-,6+
