17
gdb 1548	5.58899	1.3695	1.15953	1.0016	67.12	-0.2581	0.0563	0.3144	1030.1686	0.145567	-309.677142	-309.668398	-309.667454	-309.710239	30.547	
C	-0.0309467777	 1.3834149186	 0.00942304	-0.229174
O	-0.0065779875	-0.0237841309	-0.0108887444	-0.232615
C	 0.6466570241	-0.5464076981	-1.1450377436	-0.048973
C	 0.5807308663	-2.081085721	-1.0707468088	-0.163343
C	-0.8738702741	-2.5889227392	-1.0906141142	-0.384741
C	 1.3720981203	-2.6638663866	-2.1515896702	 0.31292
C	 2.0104615728	-3.1282128419	-3.0583558886	-0.471555
H	 0.984775148	 1.809355224	 0.0204988323	 0.105943
H	-0.5650509866	 1.7953639479	-0.8613266674	 0.10599
H	-0.5515943228	 1.6885784761	 0.9202961784	 0.128258
H	 0.1634462148	-0.1965793966	-2.0729379334	 0.093682
H	 1.697405914	-0.2171508784	-1.176305056	 0.096832
H	 1.0333756987	-2.3676855332	-0.1119523209	 0.115287
H	-1.3532068921	-2.3403508386	-2.0426409683	 0.120752
H	-0.9066279311	-3.6742347458	-0.9675779749	 0.122208
H	-1.4376806728	-2.1197374769	-0.2819242347	 0.134187
H	 2.5797873554	-3.5480982094	-3.8501485052	 0.194343
86.488	102.6249	129.3417	204.4703	220.1696	234.7424	295.7654	344.7954	435.7525	529.9288	541.5071	626.8005	642.8196	832.4401	933.316	942.5608	993.4486	1083.7954	1120.9546	1158.329	1167.2928	1191.8968	1226.4931	1262.2967	1311.1252	1343.9352	1395.5031	1418.1773	1479.5331	1485.0773	1493.1227	1499.8257	1503.5687	1526.9722	2236.1906	2958.7887	2973.8405	2995.9814	3015.9796	3023.7715	3047.7314	3114.9237	3119.2044	3140.1773	3505.0965
COCC(C)C#C	COC[C@@H](C)C#C	
InChI=1S/C6H10O/c1-4-6(2)5-7-3/h1,6H,5H2,2-3H3	InChI=1S/C6H10O/c1-4-6(2)5-7-3/h1,6H,5H2,2-3H3/t6-/m0/s1
