10
gdb 46	16.79477	6.71015	5.86781	1.3894	34.64	-0.239	0.0775	0.3166	263.966	0.085106	-193.034988	-193.030356	-193.029411	-193.061689	15.679	
O	 0.2157758326	 1.3538685887	-0.1069510704	-0.422413
C	 0.0162809875	-0.028327177	-0.029156937	 0.175616
C	-0.3908146491	-0.7149700947	 1.2431566939	-0.29637
C	-1.351181379	-0.6428038011	 0.0627358869	-0.296383
H	-0.4364233821	 1.7906284933	 0.4500676136	 0.281172
H	 0.7498116692	-0.5240404965	-0.6562476705	 0.107916
H	 0.0595937537	-1.6684048259	 1.4972923689	 0.116753
H	-0.6136935343	-0.0884800645	 2.1017064049	 0.108479
H	-2.1982193228	 0.0305843011	 0.1541145076	 0.108476
H	-1.5639591157	-1.5464042633	-0.4982651479	 0.116755
134.0033	384.9043	409.2595	742.5679	792.8137	812.3166	939.7676	982.2369	1052.483	1057.8094	1103.4857	1125.3096	1189.8376	1240.9177	1334.44	1432.2845	1459.2703	1500.6286	3122.908	3127.8384	3170.648	3202.8649	3218.7837	3819.6474
OC1CC1	OC1CC1	
InChI=1S/C3H6O/c4-3-1-2-3/h3-4H,1-2H2	InChI=1S/C3H6O/c4-3-1-2-3/h3-4H,1-2H2
