15
gdb 1838	5.79053	2.0254	1.54316	4.111	65.26	-0.2311	-0.0364	0.1947	786.6695	0.125301	-308.569875	-308.563072	-308.562127	-308.600747	24.748	
C	-0.0264048551	 1.4866109294	 0.0480629455	-0.486151
C	-0.0001588602	-0.0041224502	-0.0292908431	 0.336084
C	-0.034270659	-0.7613948258	-1.1372627782	-0.281814
C	 0.0090463448	-2.1990281209	-0.8060727218	 0.393022
O	-0.0064488732	-3.1324379743	-1.5756617325	-0.338552
C	 0.079073676	-2.30108021	 0.7287280395	-0.331981
C	 0.0724953241	-0.8459569464	 1.2296777146	-0.305032
H	 0.8677667787	 1.8638463459	 0.5601882078	 0.137761
H	-0.0793347065	 1.9478574983	-0.9406551203	 0.135071
H	-0.8861562667	 1.8289302581	 0.6377831788	 0.137767
H	-0.0866925484	-0.4035912042	-2.1582086011	 0.105186
H	-0.7721852563	-2.8844529709	 1.0910867345	 0.131968
H	 0.9813077362	-2.849866175	 1.0134505281	 0.131964
H	 0.9693587928	-0.5919174444	 1.8085962419	 0.117358
H	-0.778774817	-0.6265626295	 1.8863725263	 0.11735
97.1002	141.6321	179.9518	292.6876	441.4814	481.225	554.482	571.7256	631.8231	826.6478	835.736	873.6405	874.0526	992.6931	996.2758	1025.0446	1064.7633	1151.7641	1161.0455	1187.3675	1234.2046	1256.9787	1304.2053	1346.0377	1410.744	1452.7578	1477.1364	1478.6383	1482.4144	1682.4026	1811.4084	3021.3277	3027.5333	3051.1431	3067.3711	3070.5218	3107.6776	3123.6704	3213.4693
CC1=CC(=O)CC1	CC1=CC(=O)CC1	
InChI=1S/C6H8O/c1-5-2-3-6(7)4-5/h4H,2-3H2,1H3	InChI=1S/C6H8O/c1-5-2-3-6(7)4-5/h4H,2-3H2,1H3
