14
gdb 4310	3.97787	1.87486	1.27539	4.7307	70.97	-0.1941	-0.0253	0.1688	893.9794	0.109212	-378.758425	-378.751636	-378.750692	-378.789126	26.64	
N	 0.0223693845	 1.3922798557	 0.1605509595	-0.581803
C	-0.0186157986	 0.0178346236	 0.0567240519	 0.34975
C	-1.1772660468	-0.6987278978	 0.0359627502	-0.263655
C	-1.189417081	-2.1362499841	-0.0051100688	 0.384828
N	-2.2374735446	-2.8561158305	-0.0207121324	-0.555364
O	 0.0765304273	-2.764227205	-0.0378330714	-0.241176
C	 1.2064337179	-2.0392869638	-0.0206495064	 0.088184
C	 1.238628431	-0.6992314483	 0.0255259382	-0.24739
H	 0.8445567459	 1.8495034881	-0.2014215011	 0.255161
H	-0.8333445993	 1.8849379339	-0.0452001668	 0.258478
H	-2.1484822392	-0.2201771659	 0.0535674421	 0.101429
H	-1.9932009683	-3.8450798666	-0.0561097045	 0.213641
H	 2.087377998	-2.6701521723	-0.0478234115	 0.134824
H	 2.1865548033	-0.177489967	 0.050781551	 0.103094
141.8488	195.3676	331.7485	370.6302	404.8447	455.2707	504.4534	523.6319	577.4313	675.9104	697.3434	752.674	768.5571	810.3326	848.0496	854.3217	934.4078	977.2698	1062.9723	1105.3847	1129.5377	1252.9728	1276.9218	1310.6504	1386.2136	1486.9261	1609.899	1655.2988	1697.8654	1743.5157	3199.9081	3208.6974	3220.9132	3499.803	3580.3598	3686.6922
NC1=CC(=N)OC=C1	N[C@@H]1C=C([NH])OC=C1	
InChI=1S/C5H6N2O/c6-4-1-2-8-5(7)3-4/h1-3,7H,6H2	InChI=1S/C5H7N2O/c6-4-1-2-8-5(7)3-4/h1-4,7H,6H2/t4-/m0/s1
