14
gdb 1066	7.54213	2.00977	1.61323	2.7506	59.78	-0.1787	0.0416	0.2203	747.0292	0.115965	-320.78699	-320.780414	-320.77947	-320.817365	24.132	
C	 0.0562645247	 1.3934348325	 0.1095700775	-0.322234
N	-0.1835581542	-0.0161757347	-0.1215403344	-0.366881
C	 0.5377142645	-0.6440295392	-1.1258897115	 0.333559
C	 1.1842519645	-0.0958328027	-2.2118124386	-0.199303
N	 1.6823089206	-1.1892119227	-2.9100137388	-0.232293
C	 1.3329781525	-2.3026802562	-2.2230964718	 0.015747
N	 0.6422889357	-2.0153251584	-1.1404596948	-0.324702
H	 1.11733576	 1.6392470646	 0.283749967	 0.105027
H	-0.2823796874	 1.9759143494	-0.7554907273	 0.12583
H	-0.5255686874	 1.7221750869	 0.973772372	 0.12244
H	-0.2180983563	-0.5831153648	 0.7135091041	 0.238649
H	 1.3289356415	 0.91377293	-2.5522362264	 0.116314
H	 2.2130262141	-1.1531597248	-3.7628662507	 0.262455
H	 1.6053575273	-3.2951424399	-2.5495347064	 0.125391
103.04	180.4548	218.3473	335.1333	458.4651	460.9055	567.0601	622.5244	652.525	723.8847	742.3352	805.8123	947.8842	975.4634	1076.2584	1105.4763	1144.5344	1158.6154	1170.2241	1258.9694	1291.1079	1358.9797	1457.288	1458.2901	1482.4735	1494.468	1521.1752	1546.9818	1635.62	2962.7775	3050.4811	3116.5809	3251.4968	3291.1278	3598.5832	3677.2855
CNC1=CNC=N1	CNc1c[nH]cn1	
InChI=1S/C4H7N3/c1-5-4-2-6-3-7-4/h2-3,5H,1H3,(H,6,7)	InChI=1S/C4H7N3/c1-5-4-2-6-3-7-4/h2-3,5H,1H3,(H,6,7)
