17
gdb 2271	7.16795	1.46335	1.29141	0.716	69.83	-0.2565	0.0559	0.3124	937.6993	0.147949	-272.541597	-272.5342	-272.533256	-272.573214	27.472	
C	 0.0316805831	-1.2084463317	-0.1372138681	-0.451692
C	-0.0017761872	-0.0164652964	 0.0161899801	 0.303891
C	-0.0021641688	 1.4311013822	 0.1961931941	-0.376197
C	 1.3915151433	 2.051570937	 0.0505725294	 0.065464
C	 2.0728970131	 2.0617038811	-1.3455530933	-0.212152
C	 2.5962120756	 3.4901984187	-1.0332754293	-0.210208
C	 1.5171082784	 3.6003786132	 0.0781637069	-0.237973
H	 0.0478822055	-2.2614180986	-0.2711246023	 0.192956
H	-0.6796916105	 1.8906371756	-0.5364834506	 0.12241
H	-0.4113857227	 1.677599674	 1.1854465104	 0.127109
H	 2.0627010857	 1.6037958435	 0.7907549648	 0.081897
H	 2.80319245	 1.2792611705	-1.5615773983	 0.101611
H	 1.328225784	 2.0714850729	-2.1485101059	 0.099496
H	 3.6066170166	 3.4697585424	-0.6150824462	 0.103004
H	 2.5707066007	 4.2277765771	-1.838523777	 0.096784
H	 0.6044976099	 4.0790015116	-0.293612859	 0.097148
H	 1.7952538034	 4.0732433371	 1.0233281143	 0.096451
74.12	114.8971	159.6664	303.9398	350.175	386.072	474.8752	616.5304	629.603	645.6519	759.1543	789.6084	874.609	902.3167	932.171	947.3408	965.2333	978.9886	1054.6969	1109.4605	1133.5713	1199.1022	1216.4627	1256.2108	1259.0293	1267.6501	1274.1524	1296.905	1330.721	1377.9948	1468.8725	1478.6346	1486.611	1510.3699	2236.2051	3007.5888	3034.8739	3043.1506	3048.7867	3058.1294	3058.7924	3096.9542	3105.4455	3119.2124	3507.7267
C#CCC1CCC1	C#CCC1CCC1	
InChI=1S/C7H10/c1-2-4-7-5-3-6-7/h1,7H,3-6H2	InChI=1S/C7H10/c1-2-4-7-5-3-6-7/h1,7H,3-6H2
