16
gdb 2320	4.4411	2.03622	1.65616	3.456	61.53	-0.246	0.0276	0.2736	787.5592	0.136567	-325.790442	-325.782829	-325.781885	-325.822514	27.078	
C	-0.1977141377	 1.397803017	 0.3541970277	-0.404266
C	 0.0536255985	-0.0729563921	 0.1188198539	 0.030165
C	 1.3740445907	-0.5597022645	-0.4300546068	-0.335114
C	 0.9942899821	-0.8670735447	 0.9954881381	 0.046216
N	 1.7263453865	-0.2189712173	 2.0451744675	-0.280586
C	 1.170460864	 0.0741312241	 3.254623831	 0.151804
O	 0.0019446686	-0.0709586004	 3.5380369467	-0.317701
H	 0.7147707444	 1.9100967601	 0.6717136584	 0.110895
H	-0.5533986781	 1.8828563418	-0.5609253642	 0.113294
H	-0.9488973507	 1.5408929061	 1.1364948828	 0.141076
H	-0.8211658251	-0.6327777676	-0.1999743863	 0.092189
H	 1.3947096081	-1.3761591607	-1.1429837111	 0.118089
H	 2.1468988991	 0.187839652	-0.5834294926	 0.111093
H	 0.6933470999	-1.8858456061	 1.226573195	 0.105445
H	 2.7298438998	-0.1594748942	 1.9652854069	 0.247238
H	 1.92278468	 0.4792776267	 3.962471403	 0.070163
48.8482	149.0661	193.6146	206.6771	290.3	311.1452	421.7796	494.735	569.1664	753.606	800.9453	827.5365	859.9867	917.8158	1003.2234	1034.5577	1046.7265	1079.4101	1100.4189	1141.668	1151.8032	1193.7629	1209.4341	1275.3336	1383.0932	1411.5085	1422.5078	1431.2481	1483.9679	1495.0442	1501.4973	1505.5854	1812.0988	2921.6043	3038.6355	3103.3713	3114.6321	3126.8676	3130.3892	3151.4014	3214.8522	3616.2408
CC1CC1NC=O	C[C@H]1C[C@H]1NC=O	
InChI=1S/C5H9NO/c1-4-2-5(4)6-3-7/h3-5H,2H2,1H3,(H,6,7)	InChI=1S/C5H9NO/c1-4-2-5(4)6-3-7/h3-5H,2H2,1H3,(H,6,7)/t4-,5+/m0/s1
