17
gdb 4129	4.18386	1.28911	1.08374	1.9621	67.36	-0.2435	0.0071	0.2507	1091.0592	0.140538	-400.93522	-400.926487	-400.925543	-400.969886	30.171	
C	 0.1800898309	 1.4612001343	 0.0297156977	-0.475884
C	 0.0229214798	-0.0359217189	 0.0872560748	 0.349447
N	-0.0300958106	-0.7040192365	 1.1753434709	-0.166852
O	 0.078106194	 0.1291505743	 2.2993654354	-0.398493
C	-0.0811726792	-0.7962368052	-1.2003841314	-0.124591
C	 1.2057369445	-0.9379840541	-2.0637880847	-0.073042
O	 1.0690805069	-2.3680377779	-2.0995776681	-0.271683
C	-0.0527785826	-2.3381614843	-1.188103614	-0.087716
H	 1.0749709247	 1.7734823247	 0.5764602299	 0.151624
H	 0.2475747227	 1.8160929986	-1.0008631686	 0.119647
H	-0.6685462273	 1.9518743698	 0.517963705	 0.150583
H	 0.0280402002	-0.5021085248	 3.0248265568	 0.307303
H	-0.9116208729	-0.3899932349	-1.7875777774	 0.094217
H	 1.1730491912	-0.4926475589	-3.0652642375	 0.101677
H	 2.1293344151	-0.6229035992	-1.5597305841	 0.101339
H	 0.1910862416	-2.7757114306	-0.215919542	 0.122316
H	-0.932711579	-2.8382703365	-1.6074439425	 0.10011
53.3827	60.6372	61.8479	168.5907	218.5696	295.4051	365.1507	413.1433	444.5956	541.3854	609.5402	737.6316	847.1508	895.1115	932.319	979.725	1002.597	1020.6226	1039.076	1060.1412	1070.7307	1121.0165	1164.3354	1169.6865	1229.3339	1253.6517	1307.8813	1354.4018	1387.3099	1399.1786	1409.5474	1474.2266	1485.6038	1512.8507	1537.4061	1727.8175	3004.5695	3035.7412	3042.0716	3044.3595	3059.4854	3095.4152	3103.1039	3131.3387	3821.1808
CC(=NO)C1COC1	CC(=NO)C1COC1	
InChI=1S/C5H9NO2/c1-4(6-7)5-2-8-3-5/h5,7H,2-3H2,1H3	InChI=1S/C5H9NO2/c1-4(6-7)5-2-8-3-5/h5,7H,2-3H2,1H3
