9
gdb 782	9.78282	3.77389	2.72332	2.8417	40.29	-0.2326	-0.0042	0.2284	432.8267	0.063735	-317.402836	-317.398234	-317.39729	-317.43057	16.777	
O	 0.1090295195	 1.3567390259	-0.0718332492	-0.424672
C	 0.0692014842	 0.0122803119	-0.0895026504	 0.37985
C	-0.0302833049	-0.8200254197	-1.1806815369	-0.172237
N	-0.026284094	-2.0555875715	-0.6105769511	-0.138929
N	 0.0676533841	-1.9995566156	 0.7202322968	-0.115896
N	 0.1261814021	-0.7307319498	 1.0417610768	-0.274073
H	 0.180651886	 1.6182441319	 0.8552350144	 0.309637
H	-0.0987508078	-0.6492589499	-2.2397071926	 0.150413
H	-0.0833228591	-2.9548614033	-1.0610374977	 0.285908
338.0279	387.4547	412.7989	565.7261	684.4846	711.3925	720.402	755.2516	987.4232	1041.8318	1066.6887	1140.6711	1204.138	1280.2325	1342.2582	1408.456	1515.9216	1658.7221	3303.3552	3659.4631	3791.6222
OC1=CNN=N1	Oc1c[nH]nn1	
InChI=1S/C2H3N3O/c6-2-1-3-5-4-2/h1H,(H2,3,4,5,6)	InChI=1S/C2H3N3O/c6-2-1-3-5-4-2/h1H,(H2,3,4,5,6)
