13
gdb 1630	3.97664	2.10656	1.612	4.2076	52.33	-0.2586	-0.0534	0.2051	762.5851	0.097911	-381.61055	-381.602683	-381.601739	-381.643512	26.399	
C	-0.0276863263	 1.4145358655	 0.0643193991	-0.487057
C	 0.0217701499	-0.0900274745	-0.018679324	 0.359736
O	 1.0531356992	-0.7175627099	-0.0987839034	-0.301102
C	-1.3022534749	-0.8855284531	 0.0003214254	-0.040642
O	-1.0672442391	-2.2334419319	-0.2022420717	-0.406112
C	-2.0536536321	-0.6103052474	 1.3157001518	 0.131769
O	-2.2034711555	-1.4217084731	 2.1833284242	-0.213344
H	 0.9736835961	 1.8237573499	-0.0731023439	 0.159321
H	-0.707439821	 1.8243184444	-0.6895506011	 0.150565
H	-0.4114005281	 1.7239577443	 1.0439127859	 0.158534
H	-1.9407110374	-0.4669931708	-0.7995019304	 0.110209
H	-0.1021454997	-2.3383042934	-0.1660492171	 0.300306
H	-2.4669420011	 0.42257846	 1.3931770153	 0.077816
42.7841	91.7153	109.4655	240.8587	285.808	330.2958	399.7578	432.865	536.3918	609.7983	730.315	780.9309	879.5907	938.038	977.1656	1072.1022	1164.8865	1190.043	1235.1294	1344.2147	1390.17	1408.3176	1423.6608	1459.148	1474.6687	1801.0525	1854.9928	2852.9589	2949.4807	3037.9836	3101.2243	3155.9535	3676.2046
CC(=O)C(O)C=O	CC(=O)[C@@H](O)C=O	
InChI=1S/C4H6O3/c1-3(6)4(7)2-5/h2,4,7H,1H3	InChI=1S/C4H6O3/c1-3(6)4(7)2-5/h2,4,7H,1H3/t4-/m0/s1
