12
gdb 3802	7.85439	2.02523	1.62679	3.6759	51.78	-0.2349	-0.0095	0.2254	711.8012	0.090653	-360.485823	-360.479791	-360.478846	-360.515879	21.428	
C	 0.0235417008	 1.396749578	 0.0076226402	-0.254696
O	 0.0216370673	-0.0219299243	 0.0028533584	-0.253406
C	-1.1994531882	-0.59032504	 0.0102438266	 0.224393
C	-2.4553409786	-0.0594434834	 0.0218317401	-0.057858
O	-3.3640175651	-1.0596307459	 0.0252913297	-0.167546
N	-2.7071765335	-2.2769778572	 0.0158584724	-0.121676
C	-1.42883949	-1.9956229912	 0.0070082946	-0.054449
H	 1.0683915641	 1.7086759038	 0.00055609	 0.144032
H	-0.483902831	 1.7941196383	-0.8814578632	 0.127507
H	-0.469995514	 1.7880954034	 0.9071443866	 0.127505
H	-2.849996666	 0.9419824973	 0.0284441728	 0.146525
H	-0.6971442759	-2.7900267687	-0.0014748581	 0.139667
102.4264	215.6736	227.4731	360.5521	469.8627	606.8231	673.1833	677.0659	770.5786	893.6963	918.6164	927.1575	1015.9465	1080.7725	1135.3326	1181.421	1214.0654	1219.9207	1303.1231	1415.9626	1469.6813	1487.0561	1497.9352	1506.3823	1670.9174	3002.5873	3061.363	3145.0608	3254.5679	3286.9039
COC1=CON=C1	COc1conc1	
InChI=1S/C4H5NO2/c1-6-4-2-5-7-3-4/h2-3H,1H3	InChI=1S/C4H5NO2/c1-6-4-2-5-7-3-4/h2-3H,1H3
