17
gdb 4032	3.60799	1.21241	0.97843	2.3481	63.95	-0.255	-0.006	0.249	1172.7686	0.139445	-438.087775	-438.078301	-438.077357	-438.122432	33.634	
C	-1.3760614199	 0.9221569617	 0.3187121728	-0.480494
C	-0.1345906304	 0.1656422729	-0.0659962296	 0.331673
N	 0.8535938159	-0.0704341545	 0.7093704474	-0.161013
O	 0.6509000738	 0.4444790579	 1.9939427354	-0.39542
C	-0.0252272509	-0.3605999805	-1.4797190381	 0.013258
O	-0.1063044746	 0.7219946825	-2.4242224914	-0.438849
C	 1.2109570906	-1.207943058	-1.7858186757	-0.066481
O	 1.1824497971	-1.6274593707	-3.1351909154	-0.428835
H	-1.1275348503	 1.7790936835	 0.9489849583	 0.148815
H	-1.9038527326	 1.2618625999	-0.5737590904	 0.140659
H	-2.046973324	 0.2807881059	 0.9023924515	 0.14609
H	 1.4705815765	 0.2079097623	 2.4413431918	 0.308745
H	-0.9156190756	-0.9632793834	-1.700778707	 0.106898
H	 0.6035432473	 1.3398343247	-2.2087704565	 0.286191
H	 2.1189340207	-0.6286789726	-1.5545770941	 0.087641
H	 1.2282459213	-2.102586974	-1.1579704079	 0.118208
H	 0.9113201352	-0.8516838176	-3.6424844712	 0.282914
48.2227	83.2467	127.7219	161.9072	217.2306	290.5313	316.756	377.9587	390.2976	393.7531	457.796	498.4494	525.0704	571.2745	697.631	830.5829	892.7373	986.6038	1016.0842	1046.884	1055.6008	1082.1165	1111.4981	1191.8987	1225.2601	1284.7306	1314.3482	1378.9593	1394.0679	1402.8784	1418.5144	1438.3037	1477.2873	1488.0973	1501.1681	1730.7496	2981.2572	3037.0046	3042.4757	3098.3413	3108.1223	3148.1025	3771.2548	3780.0586	3816.4374
CC(=NO)C(O)CO	CC(=NO)[C@@H](O)CO	
InChI=1S/C4H9NO3/c1-3(5-8)4(7)2-6/h4,6-8H,2H2,1H3	InChI=1S/C4H9NO3/c1-3(5-8)4(7)2-6/h4,6-8H,2H2,1H3/t4-/m0/s1
