13
gdb 4279	3.85578	2.01016	1.32346	7.7785	63.35	-0.2229	-0.0152	0.2078	850.6165	0.098482	-394.846598	-394.839933	-394.838989	-394.877301	25.475	
N	 0.0370692404	 1.3688085936	 0.1301156652	-0.569455
C	-0.0139688381	-0.0084719926	 0.034240344	 0.463791
N	-1.1506605116	-0.6198143141	 0.0204111407	-0.369707
C	-1.1960524932	-2.026248553	 0.0102338952	 0.367952
O	-2.2543211633	-2.6244602454	 0.026085878	-0.370729
C	 0.1037435351	-2.7221388091	-0.0340082012	-0.220757
C	 1.247559532	-2.0211465617	-0.0238768931	 0.009015
N	 1.2076860157	-0.6404871726	 0.0056226238	-0.352294
H	 0.7623085239	 1.8353889139	-0.3960301596	 0.252552
H	-0.8766998289	 1.7803279418	 0.0006145131	 0.274311
H	 0.10505228	-3.8032668224	-0.0675248969	 0.116927
H	 2.2380354798	-2.4595754141	-0.0420673423	 0.133912
H	 2.0526159782	-0.1133787143	 0.1524456733	 0.264483
125.3496	201.7926	337.8046	356.3641	398.2282	479.8772	520.1166	555.2801	558.0072	619.3774	725.8915	762.7791	777.8649	847.2615	941.5252	963.8295	983.4181	1072.3895	1155.0548	1210.2044	1262.0959	1360.4839	1420.5919	1516.6785	1615.4713	1654.4704	1713.265	1777.9423	3204.3687	3233.0677	3560.6868	3648.0062	3669.0049
NC1=NC(=O)C=CN1	Nc1nc(=O)cc[nH]1	
InChI=1S/C4H5N3O/c5-4-6-2-1-3(8)7-4/h1-2H,(H3,5,6,7,8)	InChI=1S/C4H5N3O/c5-4-6-2-1-3(8)7-4/h1-2H,(H3,5,6,7,8)
