17
gdb 1861	4.84978	2.05094	1.68957	1.1519	66.41	-0.2277	0.0351	0.2628	793.8003	0.148494	-309.736797	-309.729561	-309.728617	-309.767827	27.213	
C	 0.2609177337	 1.4127548774	 0.094485452	-0.496074
C	-0.0084898806	-0.055979616	 0.0116245783	 0.349647
C	 0.0237520677	-0.8287567832	-1.0759295239	-0.157056
C	-0.3381927758	-2.2614456917	-0.7775776169	-0.276119
C	-0.2978256655	-2.3284417012	 0.7734992444	 0.12746
O	 0.9536800328	-2.8139593055	 1.2505367001	-0.439821
C	-0.4010171284	-0.8599395154	 1.2334409911	-0.295514
H	 1.0914060616	 1.6239214949	 0.7802307078	 0.126801
H	 0.5104830046	 1.8346305109	-0.8829707243	 0.120791
H	-0.6093270574	 1.9552277506	 0.4867436574	 0.121666
H	 0.2587772426	-0.4783003165	-2.0756662674	 0.080422
H	-1.3364170467	-2.5134618902	-1.1637512655	 0.099486
H	 0.3571067247	-2.9882590578	-1.218052801	 0.090489
H	-1.1160784581	-2.9429748704	 1.174235971	 0.057192
H	 1.0777611719	-3.7019840031	 0.9007320378	 0.277558
H	 0.257537061	-0.6928292232	 2.0931472839	 0.114881
H	-1.419912878	-0.6076426295	 1.5584067252	 0.09819
88.5283	182.1396	233.6507	295.283	312.7467	400.7193	420.332	448.0405	607.7641	769.4058	793.961	853.5808	881.1463	903.4295	954.5727	964.1982	1028.079	1032.6596	1040.9378	1098.178	1159.9142	1178.4999	1220.7637	1242.2449	1286.9364	1304.9389	1334.7863	1373.3553	1413.3317	1420.3915	1467.4372	1478.3919	1479.7178	1489.9767	1725.0077	2989.0368	3004.9296	3014.1052	3019.6708	3034.8015	3059.8814	3067.0759	3108.5773	3183.3206	3814.8826
CC1=CCC(O)C1	CC1=CC[C@@H](O)C1	
InChI=1S/C6H10O/c1-5-2-3-6(7)4-5/h2,6-7H,3-4H2,1H3	InChI=1S/C6H10O/c1-5-2-3-6(7)4-5/h2,6-7H,3-4H2,1H3/t6-/m1/s1
