14
gdb 2658	7.75423	0.98287	0.93213	4.0738	66.07	-0.2682	0.0213	0.2895	1223.1643	0.112252	-287.43174	-287.423583	-287.422639	-287.46654	27.03	
C	-0.4376942609	 1.4016030372	 0.2213264327	-0.367739
C	 0.3952842221	 0.1670695237	-0.1690185843	-0.315154
C	 1.071098575	-0.4498849302	 0.9672016999	 0.110188
C	 1.6163580339	-0.9433482441	 1.918862807	 0.051149
C	 2.2859832554	-1.5496150618	 3.0668944132	-0.470472
C	 1.4467753313	-2.5262340424	 3.7754347082	 0.278709
N	 0.7974449914	-3.2953727942	 4.3409928674	-0.302325
H	 0.1951436855	 2.1727738045	 0.6685985584	 0.129344
H	-0.9245906715	 1.8244565145	-0.6620528868	 0.119462
H	-1.2103593986	 1.1349916902	 0.9471154252	 0.13453
H	-0.2516363159	-0.5787505444	-0.6476622146	 0.138657
H	 1.1416288551	 0.4474688861	-0.9229853476	 0.134127
H	 3.2074914514	-2.0575060043	 2.7536860915	 0.179942
H	 2.5929911758	-0.7801802548	 3.7872601999	 0.17958
8.0879	85.6296	127.867	204.3129	283.0106	287.5741	374.8023	396.047	489.7058	562.2208	752.5637	784.7035	918.1254	936.4174	970.6723	1079.5159	1104.6606	1166.6416	1234.8861	1285.934	1336.7926	1351.2232	1410.2186	1448.8458	1472.9958	1495.2988	1505.4272	2369.6288	2381.109	3023.0832	3024.8457	3046.7228	3052.1544	3053.6445	3121.0408	3126.3287
CCC#CCC#N	CCC#CCC#N	
InChI=1S/C6H7N/c1-2-3-4-5-6-7/h2,5H2,1H3	InChI=1S/C6H7N/c1-2-3-4-5-6-7/h2,5H2,1H3
