13
gdb 1454	8.38323	1.54988	1.31891	3.9863	54.05	-0.2548	-0.0008	0.254	869.7872	0.101505	-377.80758	-377.799863	-377.798919	-377.840129	25.32	
C	 0.1766625627	 1.3619215982	 0.0072132497	-0.234243
O	-0.0409112767	-0.0517072186	 0.0016670789	-0.269896
C	-1.3506604939	-0.417481002	 0.0117433632	 0.543369
O	-2.2783074372	 0.3419174313	 0.0246029182	-0.359164
N	-1.3899346543	-1.8040652865	 0.0049414396	-0.372735
C	-2.5037779784	-2.6352886605	 0.0115580699	 0.084754
N	-3.703237316	-2.2293962231	 0.0258139612	-0.40003
H	 1.2589021591	 1.4934620316	-0.0021194654	 0.131988
H	-0.2719219951	 1.8266473361	-0.8744917105	 0.143664
H	-0.2554414945	 1.81714368	 0.9020105924	 0.143671
H	-0.4875869695	-2.2514043643	-0.0060497628	 0.263344
H	-2.1852391945	-3.6854418007	 0.0025874565	 0.096097
H	-4.3335580616	-3.0296210014	 0.0276829689	 0.229181
65.035	94.8387	138.5697	175.3368	204.8575	306.5686	406.7849	569.7524	588.7576	775.9603	778.5092	822.4252	959.4211	1019.2204	1062.1	1153.8083	1183.885	1210.1018	1219.69	1264.4537	1430.3755	1470.6142	1480.4691	1500.5964	1548.8033	1739.5913	1865.1482	3035.1271	3051.2749	3125.7839	3156.7809	3500.8433	3649.8481
COC(=O)NC=N	COC(=O)NC=N	
InChI=1S/C3H6N2O2/c1-7-3(6)5-2-4/h2H,1H3,(H2,4,5,6)	InChI=1S/C3H6N2O2/c1-7-3(6)5-2-4/h2H,1H3,(H2,4,5,6)
