17
gdb 3433	4.62395	2.64092	1.91915	0.2434	69.54	-0.2166	0.0317	0.2483	717.8665	0.149804	-272.589999	-272.583609	-272.582665	-272.619815	25.214	
C	-0.0164510625	 1.4917657361	 0.0633150893	-0.497141
C	-0.0102767142	-0.0035504128	 0.005219087	 0.344656
C	 0.0170857306	-0.7762640574	-1.0870184383	-0.182941
C	-0.0130054368	-2.2546554024	-0.7613623651	-0.264391
C	 0.0547103512	-2.2828581202	 0.7659277071	-0.031242
C	 1.2592709156	-1.6764444872	 1.4367630473	-0.2765
C	 0.0066564405	-0.8421661912	 1.2464353742	-0.121643
H	 0.8593194716	 1.8729520846	 0.6037625456	 0.12589
H	-0.0214628228	 1.9345067274	-0.9364153937	 0.120944
H	-0.8981594649	 1.8624858394	 0.6018774966	 0.12308
H	 0.0748702266	-0.4050996612	-2.104927344	 0.080575
H	-0.9350215411	-2.7266934099	-1.1286604261	 0.102206
H	 0.8168826364	-2.8030133662	-1.2269113708	 0.104063
H	-0.4777381809	-3.0619993308	 1.2984317009	 0.081521
H	 1.4868073921	-2.0211126805	 2.440529529	 0.104973
H	 2.1279789686	-1.4264928853	 0.8351713756	 0.108231
H	-0.5573718202	-0.5309594223	 2.1200116754	 0.07772
180.5619	197.7748	283.8487	318.9093	365.8625	558.2479	597.773	713.8801	775.4928	807.2109	814.9934	854.4618	896.7415	945.1489	987.9808	999.9846	1026.9286	1049.2228	1063.9325	1081.2539	1099.4421	1101.7794	1179.2901	1189.5059	1206.8827	1273.663	1317.2054	1369.2318	1380.1353	1413.8563	1473.6196	1478.8566	1485.6826	1490.0723	1706.7426	3006.1079	3016.0426	3032.8294	3061.2221	3109.2907	3118.6307	3156.0236	3176.8671	3185.5884	3207.6682
CC1=CCC2CC12	CC1=CC[C@H]2C[C@@H]12	
InChI=1S/C7H10/c1-5-2-3-6-4-7(5)6/h2,6-7H,3-4H2,1H3	InChI=1S/C7H10/c1-5-2-3-6-4-7(5)6/h2,6-7H,3-4H2,1H3/t6-,7-/m0/s1
