17
gdb 3470	4.83913	2.43126	2.3727	1.4944	62.86	-0.2436	0.0733	0.3169	659.6308	0.150865	-309.703111	-309.697057	-309.696113	-309.732553	24.476	
O	 0.2172013824	 1.3666093891	-0.1810992885	-0.457892
C	 0.0651934326	-0.0247828987	-0.0420964644	 0.194616
C	 0.1527141988	-0.6288104528	 1.3982226228	-0.049603
C	-1.3510980328	-0.2428646093	 1.5460738343	-0.25562
C	-1.3888956327	-0.5973014831	 0.0277825065	-0.049596
C	-1.1113522573	-2.1105926053	 0.0511579243	-0.212618
C	 0.0625139492	-2.1345859073	 1.0946888663	-0.212619
H	-0.344358187	 1.8121482458	 0.4610298139	 0.279741
H	 0.726725921	-0.4625084503	-0.7963247287	 0.074263
H	 0.9123606468	-0.2954398327	 2.1062901827	 0.060515
H	-1.9688008465	-0.8359094644	 2.227295953	 0.092407
H	-1.5177175812	 0.8166752412	 1.7578567654	 0.083386
H	-2.1731090849	-0.2323703991	-0.6365907607	 0.060516
H	-1.9793411751	-2.6881163385	 0.3812278033	 0.097651
H	-0.8086348155	-2.4922432071	-0.9283694654	 0.098601
H	 0.9909715636	-2.5290286496	 0.6714274261	 0.098601
H	-0.1769307015	-2.7249536281	 1.9835179793	 0.097651
194.3736	274.5989	292.0771	357.0473	444.1392	541.3669	628.8336	814.4036	820.9868	835.936	876.6651	887.3121	901.5235	938.9481	969.7932	1004.494	1019.2149	1047.474	1072.2706	1079.918	1132.5948	1169.2837	1207.0245	1208.344	1241.7058	1257.3114	1262.9667	1287.6519	1289.6486	1315.797	1329.7902	1444.0515	1493.4213	1506.1617	1527.401	3048.2745	3051.6375	3056.9882	3062.7342	3084.6349	3098.4997	3104.433	3108.2449	3113.0806	3818.879
OC1C2CC1CC2	O[C@H]1[C@H]2C[C@@H]1CC2	
InChI=1S/C6H10O/c7-6-4-1-2-5(6)3-4/h4-7H,1-3H2	InChI=1S/C6H10O/c7-6-4-1-2-5(6)3-4/h4-7H,1-3H2/t4-,5+,6+
