12
gdb 4280	4.01688	2.02149	1.34533	5.9358	59.07	-0.2384	-0.0294	0.209	826.4578	0.085575	-414.718535	-414.711985	-414.711041	-414.749231	24.496	
N	 0.059046008	 1.3359923961	 0.1224303461	-0.557325
C	-0.038475408	-0.0133585844	 0.0426276017	 0.496594
N	-1.1651362736	-0.6257388078	 0.0222785187	-0.384838
C	-1.1890170539	-2.0287142429	-0.0057560736	 0.373548
O	-2.2286898382	-2.6523157705	-0.020896545	-0.354732
C	 0.1346118043	-2.6846693564	-0.0217672317	-0.248786
C	 1.2422499323	-1.9439511363	-0.0103779514	 0.062402
O	 1.2053455611	-0.5783026587	 0.0227779695	-0.220235
H	 0.9350170422	 1.7733906196	-0.1075229005	 0.273179
H	-0.7913307348	 1.8508701925	-0.0317928169	 0.284164
H	 0.1851741998	-3.764845885	-0.0473020033	 0.129017
H	 2.2630162008	-2.3036890262	-0.0239531836	 0.147011
123.6593	188.8007	323.7103	357.6601	395.0455	491.8275	516.7405	550.5207	574.4011	727.468	769.3844	776.0422	853.0084	902.201	951.6526	964.5607	1031.9147	1142.318	1232.3497	1302.1705	1385.8871	1413.345	1592.6931	1654.6506	1730.2998	1796.4967	3217.4162	3238.5366	3614.5238	3744.0001
NC1=NC(=O)C=CO1	Nc1nc(=O)cco1	
InChI=1S/C4H4N2O2/c5-4-6-3(7)1-2-8-4/h1-2H,(H2,5,6,7)	InChI=1S/C4H4N2O2/c5-4-6-3(7)1-2-8-4/h1-2H,(H2,5,6,7)
