13
gdb 1002	4.12084	3.39907	1.8849	3.4953	55.38	-0.1908	0.0385	0.2293	642.7623	0.103394	-340.693392	-340.686888	-340.685944	-340.72369	23.477	
C	-0.0050957588	 1.445492448	-0.0014257501	-0.345758
N	 0.0125677475	 0.0017136192	-0.037305285	-0.086001
C	 0.0598344095	-0.8143659875	-1.16514291	-0.10807
C	 0.0632342041	-2.097058655	-0.7489556569	-0.092338
N	 0.0182553179	-2.0741766477	 0.6418294834	-0.356751
C	-0.0139730839	-0.7721990645	 1.1209372937	 0.460283
O	-0.0555913332	-0.3885666186	 2.276315546	-0.445877
H	 0.8992580404	 1.8666220559	-0.4540609086	 0.130623
H	-0.8814829698	 1.845929317	-0.5225036342	 0.130565
H	-0.0486259334	 1.7362723372	 1.049687302	 0.172057
H	 0.0860176282	-0.4047013799	-2.1603196464	 0.133713
H	 0.0928217895	-3.0146323111	-1.3097739626	 0.139138
H	 0.0095284619	-2.8653488831	 1.2598046085	 0.268416
119.6302	163.4521	229.2817	295.4071	423.2591	509.599	598.626	653.814	675.2795	755.5355	764.808	789.4705	903.397	1033.5161	1097.6505	1110.4872	1159.0525	1185.1845	1293.5998	1320.0896	1391.7433	1431.262	1476.8153	1496.47	1512.7793	1635.9566	1823.3315	3028.1475	3083.4988	3144.7919	3276.9309	3299.5738	3702.3705
CN1C=CNC1=O	Cn1cc[nH]c1=O	
InChI=1S/C4H6N2O/c1-6-3-2-5-4(6)7/h2-3H,1H3,(H,5,7)	InChI=1S/C4H6N2O/c1-6-3-2-5-4(6)7/h2-3H,1H3,(H,5,7)
