19
gdb 1139	4.77422	1.7673	1.65623	1.5303	67.01	-0.2539	0.0746	0.3286	850.7327	0.170464	-310.915653	-310.907707	-310.906762	-310.947014	30.604	
C	-0.6178211606	 1.599359837	-0.0530013182	-0.443781
C	-0.0307496325	 0.1930130215	 0.0169660116	 0.347447
C	-1.1164272375	-0.8595021873	-0.2280093855	-0.433994
C	 1.2457425246	-0.0645331993	-0.8494880426	-0.300946
C	 1.8771967331	-0.8062341655	 0.3573601985	 0.178956
O	 3.249265967	-0.6621547105	 0.6294367245	-0.436236
C	 0.8302038006	-0.1319492589	 1.2817413271	-0.300946
H	 0.1494539687	 2.3613957219	 0.1206520935	 0.10287
H	-1.0645142032	 1.7931541477	-1.0355344863	 0.112118
H	-1.4027969078	 1.7382733984	 0.6999784565	 0.112119
H	-1.5735232823	-0.7267661233	-1.2153569557	 0.111857
H	-0.717416587	-1.8780491784	-0.1824157407	 0.1145
H	-1.9122247158	-0.781695766	 0.5216995387	 0.111856
H	 1.1289212357	-0.6127303671	-1.7884768457	 0.095646
H	 1.7836170756	 0.8686535943	-1.0544513383	 0.083743
H	 1.7126735752	-1.8851109988	 0.2911563364	 0.091763
H	 3.4401713027	 0.2794846231	 0.6964739222	 0.27364
H	 1.2407134416	 0.780571264	 1.7300105728	 0.083743
H	 0.376024882	-0.734880973	 2.0729829613	 0.095646
106.2881	218.7886	244.853	267.7215	305.8195	328.2264	339.8401	379.7468	451.7016	457.2631	565.8044	734.4505	826.5724	863.9412	895.6899	945.6901	965.9238	966.1448	1001.381	1036.1042	1082.082	1096.6764	1118.7805	1199.4431	1225.5213	1233.7308	1282.8436	1295.4556	1301.4313	1336.2851	1403.7409	1422.5491	1442.2321	1467.7694	1483.0151	1485.4983	1498.4147	1503.9211	1506.0111	3016.9626	3023.068	3030.731	3038.3136	3072.2034	3081.2934	3087.9613	3089.075	3094.886	3096.0575	3103.2015	3803.9676
CC1(C)CC(O)C1	CC1(C)CC(O)C1	
InChI=1S/C6H12O/c1-6(2)3-5(7)4-6/h5,7H,3-4H2,1-2H3	InChI=1S/C6H12O/c1-6(2)3-5(7)4-6/h5,7H,3-4H2,1-2H3
