17
gdb 3161	3.72841	2.69438	1.89757	1.4468	64.24	-0.2519	0.0811	0.3331	726.0814	0.148659	-309.691414	-309.684511	-309.683567	-309.721991	26.723	
O	 0.4223697792	 0.9071082387	-0.6898842847	-0.428557
C	 0.100673926	-0.2500574402	 0.0387740821	 0.092731
C	 0.0410785432	-0.1968529095	 1.593646519	-0.253295
C	-1.2337652934	-1.0908724	 1.5454986955	-0.304637
C	-1.3504169593	-0.7624393837	 0.0515256535	 0.337434
C	-2.4915661347	-0.0377801804	-0.6068158977	-0.32416
C	-2.1218934323	-1.4416028547	-1.0336567035	-0.334065
H	-0.1733933693	 1.6069569848	-0.4002221694	 0.276809
H	 0.7978005214	-1.018405625	-0.3122443716	 0.089605
H	 0.9078280823	-0.5659070442	 2.1459465887	 0.100896
H	-0.1882078144	 0.8171652736	 1.9372502379	 0.095115
H	-1.01025372	-2.1465646787	 1.7277748677	 0.104265
H	-2.068482041	-0.7972476145	 2.1869438441	 0.100343
H	-3.4068969206	 0.106284115	-0.0413586668	 0.110172
H	-2.2505539874	 0.7701447247	-1.2914444509	 0.111068
H	-1.6414473763	-1.5660448861	-1.9993724875	 0.115952
H	-2.7893728234	-2.2519982399	-0.7575627362	 0.110323
100.3671	219.7896	236.2022	311.4958	343.451	418.4454	525.883	558.0784	704.369	773.4575	790.3546	860.7381	889.9567	912.3034	929.6492	970.4792	996.6894	1050.7031	1059.8691	1080.0038	1113.7694	1136.8254	1184.2692	1192.4911	1225.5503	1237.1011	1271.1316	1278.5609	1317.0599	1377.9318	1433.0133	1457.7458	1475.9754	1496.4372	1501.6874	3048.3994	3052.8122	3056.6153	3097.7047	3116.8066	3118.1656	3121.9265	3197.0578	3211.6687	3800.5539
OC1CCC11CC1	O[C@H]1CCC21CC2	
InChI=1S/C6H10O/c7-5-1-2-6(5)3-4-6/h5,7H,1-4H2	InChI=1S/C6H10O/c7-5-1-2-6(5)3-4-6/h5,7H,1-4H2/t5-/m0/s1
