11
gdb 918	5.96876	2.87856	1.94199	1.2327	56.03	-0.2407	-0.0592	0.1815	601.5686	0.080879	-339.465889	-339.460617	-339.459673	-339.49494	19.562	
N	-0.022362178	 1.3349906426	 0.0101471756	-0.529729
C	-0.0401513853	 0.0702523468	 0.0033558242	 0.390272
O	 1.1644015629	-0.664838643	-0.0079084654	-0.219782
C	 1.1368209387	-2.0104210526	-0.0150583273	 0.148284
N	 0.1061264876	-2.7618027748	-0.0129365267	-0.278832
C	-1.1183794433	-2.0972043808	-0.0019222702	-0.007682
C	-1.2290109129	-0.7554746651	 0.0060538971	-0.14058
H	 0.933121797	 1.6919603622	 0.0063205645	 0.228371
H	 2.1428330256	-2.4198070365	-0.0233916937	 0.148319
H	-1.9914322054	-2.7409058757	-0.0001439041	 0.128479
H	-2.182594677	-0.2446609731	 0.014601566	 0.13288
140.3425	329.1653	425.1802	512.2501	527.4285	666.7306	739.8585	788.657	840.8702	873.3512	955.1118	963.4959	987.7751	1010.8703	1078.086	1157.3785	1226.3262	1286.9821	1407.6127	1429.167	1612.9272	1669.6443	1759.3712	3190.3303	3193.5794	3233.0246	3496.093
N=C1OC=NC=C1	[NH]C1=CCN=CO1	
InChI=1S/C4H4N2O/c5-4-1-2-6-3-7-4/h1-3,5H	InChI=1S/C4H5N2O/c5-4-1-2-6-3-7-4/h1,3,5H,2H2
