12
gdb 3308	6.2261	2.22005	1.98349	4.3914	53.83	-0.2649	-0.0032	0.2617	644.3032	0.090567	-323.334482	-323.328732	-323.327787	-323.364076	21.212	
N	-0.0461492551	-1.1625778368	-0.1023649845	-0.319299
C	-0.0093141108	-0.0108471763	-0.0179322106	 0.290246
C	 0.0496672135	 1.451664332	 0.0689248351	-0.018112
O	-0.1442683607	 1.9558771262	 1.4148271508	-0.283586
C	 1.0861107964	 2.6928703736	 1.3245165176	 0.11126
C	 2.2465442765	 1.7671599102	 1.1783511988	-0.297812
C	 1.418780749	 2.1292530056	-0.0377158368	-0.131339
H	-0.6957679604	 1.8857843391	-0.6066164113	 0.134583
H	 1.0994045048	 3.6957609751	 1.7315405571	 0.120788
H	 3.2248011756	 2.2368065277	 1.1975752759	 0.129056
H	 2.1998328779	 0.770353773	 1.6069478458	 0.143788
H	 1.8156719932	 2.5868506407	-0.932063308	 0.120426
130.3993	187.4683	344.0804	440.1899	546.6656	567.5684	728.036	773.5876	810.8724	933.9912	949.1732	972.2612	990.7196	1032.6182	1047.9595	1052.3559	1081.5293	1088.4213	1192.7868	1242.4546	1276.0936	1354.8495	1357.5836	1474.056	2358.8565	3051.5597	3125.3845	3200.8817	3216.358	3225.6004
N#CC1OC2CC12	N#C[C@H]1O[C@H]2C[C@@H]12	
InChI=1S/C5H5NO/c6-2-5-3-1-4(3)7-5/h3-5H,1H2	InChI=1S/C5H5NO/c6-2-5-3-1-4(3)7-5/h3-5H,1H2/t3-,4+,5-/m1/s1
