15
gdb 3138	5.87136	2.01468	1.79772	1.8523	56.81	-0.2571	0.0709	0.328	730.3707	0.124887	-345.609914	-345.603221	-345.602277	-345.640641	24.817	
O	 0.0996879489	 1.3662623581	-0.3186059999	-0.414135
C	 0.0941436273	 0.009399117	 0.0987116057	-0.17616
C	-1.2969126591	-0.5141760707	 0.2592213885	 0.400468
C	-2.346528214	-0.2183940993	 1.3449522657	-0.283253
C	-2.9850055925	-1.6202683153	 1.0413965764	-0.237117
C	-1.9100233883	-1.8232414909	-0.0356671559	-0.0421
O	-2.0342987609	-0.7368380747	-0.9616928981	-0.296118
H	-0.3950514306	 1.403467068	-1.144987449	 0.293702
H	 0.6389660871	-0.6363585898	-0.6065864421	 0.096782
H	 0.62211146	-0.0155942108	 1.057695794	 0.112575
H	-1.9213199647	-0.1590714774	 2.3496142632	 0.108344
H	-2.9667261681	 0.6603127086	 1.1584524141	 0.114001
H	-2.8920887371	-2.3144651303	 1.879784955	 0.107486
H	-4.0125960963	-1.6281335775	 0.6714554912	 0.113747
H	-1.4773320317	-2.743573235	-0.4129833888	 0.101778
80.005	157.2376	271.375	303.8805	407.6739	442.3535	498.428	705.2098	728.0479	772.0252	872.9529	915.6064	919.2655	951.3922	964.3826	1014.5951	1058.4509	1072.3738	1144.4947	1175.5761	1210.6653	1218.1082	1235.633	1263.6423	1297.5487	1367.3651	1419.7266	1455.9761	1464.5949	1488.3251	1492.0714	2992.2699	3067.36	3074.4358	3078.3329	3119.5639	3135.7602	3178.4602	3804.0622
OCC12CCC1O2	OC[C@]12CC[C@H]1O2	
InChI=1S/C5H8O2/c6-3-5-2-1-4(5)7-5/h4,6H,1-3H2	InChI=1S/C5H8O2/c6-3-5-2-1-4(5)7-5/h4,6H,1-3H2/t4-,5-/m1/s1
