14
gdb 2980	5.22091	1.87203	1.6063	2.3395	58.88	-0.2457	0.0185	0.2643	774.9456	0.112535	-324.502042	-324.494694	-324.49375	-324.53337	26.678	
O	-0.7929156472	 0.8546766451	 0.1288380789	-0.423233
C	-0.171990312	-0.4086251245	-0.1049818702	-0.064879
C	 0.8717763819	-0.3255024625	-1.1265730069	 0.293466
C	 1.7493381098	-0.2279829979	-1.9422870522	-0.455121
C	 0.373167117	-1.0213903537	 1.1883053114	 0.019715
C	 0.9618996669	-0.1621257008	 2.2383698669	-0.235021
N	-0.3560744647	-0.7986183613	 2.4369973269	-0.32845
H	-0.1183392471	 1.5353735972	 0.0344086736	 0.295145
H	-0.9789565766	-1.0581044125	-0.4696072876	 0.12658
H	 2.5166771131	-0.1513280803	-2.673012466	 0.206804
H	 0.7533167729	-2.0318526033	 1.0559862637	 0.103159
H	 1.7610344452	-0.5427002235	 2.8672099057	 0.120751
H	 0.9886513725	 0.9106637238	 2.0682331945	 0.09993
H	-1.0724421016	-0.0957288858	 2.2579852915	 0.241157
84.008	146.245	219.9613	266.3311	293.4781	338.9038	475.1172	545.1923	624.6211	646.137	684.1481	794.9696	868.7591	891.2229	966.0567	996.6011	1005.3538	1068.0834	1117.3762	1153.314	1198.5536	1263.3691	1278.0018	1311.0068	1326.7136	1397.7177	1421.9335	1505.4886	2233.8571	3023.6654	3114.4058	3135.8743	3198.7137	3479.6862	3501.5892	3820.8112
OC(C#C)C1CN1	O[C@@H](C#C)[C@H]1CN1	
InChI=1S/C5H7NO/c1-2-5(7)4-3-6-4/h1,4-7H,3H2	InChI=1S/C5H7NO/c1-2-5(7)4-3-6-4/h1,4-7H,3H2/t4-,5+/m1/s1
