15
gdb 1304	3.50696	2.57633	2.22623	3.9969	56.57	-0.2679	0.0137	0.2816	686.7649	0.124338	-345.689766	-345.682556	-345.681612	-345.720707	25.972	
C	-0.1153932287	 1.5491157286	 0.0542223745	-0.444061
C	-0.0303100866	 0.0245493698	-0.0229789407	 0.104889
C	-1.3946127589	-0.642423169	 0.1540150669	-0.444061
C	 0.8593702726	-0.5462822174	-1.1544251354	-0.111307
O	 1.8130346559	-1.0580212686	-0.1682608703	-0.24563
C	 1.0656638343	-0.5742458883	 0.8760754448	 0.444768
O	 1.2990426557	-0.6574896232	 2.0389691856	-0.332445
H	 0.8647103099	 2.016269106	-0.0820214636	 0.128767
H	-0.7893542956	 1.9359506286	-0.7174210194	 0.122839
H	-0.5024665192	 1.8578768308	 1.0297153902	 0.140709
H	-2.0934279178	-0.2981256129	-0.6156696335	 0.122838
H	-1.3234265217	-1.7324034489	 0.088645356	 0.128766
H	-1.8150573904	-0.3908875432	 1.13212648	 0.140709
H	 0.4336529928	-1.3652727076	-1.7385891041	 0.12161
H	 1.3385785677	 0.1850656553	-1.8091905709	 0.12161
126.9343	182.9674	211.4568	224.0985	282.9496	343.0447	377.6652	545.2607	670.2358	744.1904	774.3963	863.645	938.104	960.9952	969.1589	1003.9647	1038.8198	1109.3033	1158.5042	1212.3508	1248.8177	1271.62	1357.0649	1401.4241	1424.7318	1482.6049	1485.7439	1503.5161	1504.3471	1521.1261	1933.2134	3033.7631	3036.9205	3066.5731	3104.1065	3106.767	3113.3022	3116.8934	3127.2778
CC1(C)COC1=O	CC1(C)COC1=O	
InChI=1S/C5H8O2/c1-5(2)3-7-4(5)6/h3H2,1-2H3	InChI=1S/C5H8O2/c1-5(2)3-7-4(5)6/h3H2,1-2H3
