16
gdb 3084	3.38022	2.32761	1.90826	4.1687	65.07	-0.2805	0.0318	0.3122	757.0309	0.136342	-288.654312	-288.646579	-288.645635	-288.685936	27.653	
C	-0.0980478268	 1.5668495773	 0.0858286244	-0.413003
C	 0.0234355775	 0.0651778818	-0.0433615626	-0.019161
C	 0.6882259514	-0.6139823117	-1.208186636	-0.019163
C	 1.3027675412	 0.1357441609	-2.3686695509	-0.413015
C	 1.3603767439	-0.6508003495	 0.167006747	-0.199039
C	 2.5500652395	 0.1164556062	 0.398652574	 0.290023
N	 3.5086355189	 0.7392125246	 0.5825699599	-0.349971
H	 0.7987041953	 2.087705855	-0.256168312	 0.142691
H	-0.9485169751	 1.9347513809	-0.4976972004	 0.123545
H	-0.2609921347	 1.8495016549	 1.1306439328	 0.130866
H	-0.8148072321	-0.4790746384	 0.3836245966	 0.100123
H	 0.2529556209	-1.5699233693	-1.4872832523	 0.100124
H	 1.8230236577	 1.041427578	-2.0500921457	 0.142704
H	 2.0320655292	-0.4937359033	-2.8882465509	 0.13086
H	 0.5319676649	 0.4226616879	-3.0916481694	 0.123548
H	 1.3409356382	-1.5925029853	 0.7049738156	 0.128868
129.6377	145.4465	162.4075	163.6496	246.126	341.3068	387.3761	481.4126	582.7608	631.5147	739.3853	773.9725	831.7393	930.6287	953.4165	1011.1491	1039.2083	1077.3109	1123.5066	1141.7569	1151.9372	1192.5981	1254.8802	1360.6207	1378.8476	1423.926	1427.0536	1433.1469	1484.6955	1492.1003	1499.1903	1510.7175	2345.6953	3040.2001	3043.4745	3101.0302	3102.3906	3120.8869	3130.3974	3140.2713	3150.0435	3169.5293
CC1C(C)C1C#N	C[C@H]1[C@@H](C)[C@H]1C#N	
InChI=1S/C6H9N/c1-4-5(2)6(4)3-7/h4-6H,1-2H3	InChI=1S/C6H9N/c1-4-5(2)6(4)3-7/h4-6H,1-2H3/t4-,5+,6-
