10
gdb 687	9.08323	3.62121	3.02005	4.1654	42.62	-0.2803	-0.0009	0.2794	436.863	0.073601	-305.159206	-305.154609	-305.153665	-305.187032	16.913	
O	-0.0443557091	 0.0743957968	-0.0287400303	-0.317827
C	 0.0450793996	 1.2550959876	 0.036714958	 0.470216
O	-0.9894751018	 2.1734086333	 0.2152955675	-0.261465
C	-0.057551266	 3.2694993925	 0.0059510945	 0.105079
C	 0.9339082912	 3.2831368545	 1.1056030493	-0.286536
C	 1.1076726346	 2.3172586536	-0.080356131	-0.259066
H	-0.3744064362	 4.0758163729	-0.63880622	 0.135566
H	 1.6472442732	 4.1018069679	 1.1083871301	 0.135913
H	 0.6532847791	 2.9035787868	 2.0825593696	 0.144738
H	 1.9859130654	 2.295003474	-0.7075156478	 0.133381
205.0105	453.5003	474.3667	672.5769	751.4461	805.0787	822.1904	893.2633	929.5704	972.9662	1006.8995	1037.4298	1051.4987	1081.5132	1106.5265	1187.067	1274.1921	1330.0426	1477.7118	1949.3872	3128.6173	3221.2013	3231.6651	3243.2004
O=C1OC2CC12	O=C1O[C@H]2C[C@@H]12	
InChI=1S/C4H4O2/c5-4-2-1-3(2)6-4/h2-3H,1H2	InChI=1S/C4H4O2/c5-4-2-1-3(2)6-4/h2-3H,1H2/t2-,3+/m1/s1
