15
gdb 1737	5.19789	1.79772	1.62929	4.5745	61.05	-0.2608	0.0338	0.2946	792.8581	0.125138	-304.692914	-304.685613	-304.684669	-304.724301	26.384	
C	-0.0183681407	 1.5704175175	-0.1870869293	-0.471771
C	-0.0260915669	 0.0608529163	-0.0733556972	 0.330426
C	-1.3214357809	-0.5522849209	 0.4597305255	-0.376554
C	-1.6865566593	-0.0344636014	 1.7792475637	 0.269719
N	-1.9666948945	 0.3956178319	 2.814508275	-0.314118
C	 0.7812625783	-0.7466198383	-1.0233824397	-0.285017
N	 1.1788807521	-0.6367216396	 0.3929821662	-0.330788
H	 0.9274977761	 1.9229730853	-0.609283413	 0.118181
H	-0.8272324232	 1.9224001216	-0.8370865573	 0.127805
H	-0.1531960002	 2.037285283	 0.7941812432	 0.151803
H	-2.1481140538	-0.351743969	-0.2324397317	 0.148145
H	-1.2041832312	-1.6373899122	 0.5310305914	 0.15957
H	 0.4501053171	-1.7356917244	-1.3293308916	 0.119885
H	 1.3569803569	-0.2129831553	-1.7750718736	 0.117645
H	 1.9490086802	 0.0193792655	 0.4953091484	 0.235069
70.9273	143.1107	219.0094	328.7108	348.3705	376.4105	391.3605	401.948	545.8481	738.786	841.7616	887.6272	913.3104	940.6671	958.8399	992.6107	1017.8433	1067.3148	1119.2753	1151.7754	1229.3237	1262.3547	1311.5355	1345.9097	1393.7005	1423.5615	1451.9926	1485.908	1502.6033	1519.5989	2361.7584	3031.7424	3044.6661	3097.4228	3099.7151	3106.6929	3110.0269	3190.5246	3504.5045
CC1(CC#N)CN1	C[C@@]1(CC#N)CN1	
InChI=1S/C5H8N2/c1-5(2-3-6)4-7-5/h7H,2,4H2,1H3	InChI=1S/C5H8N2/c1-5(2-3-6)4-7-5/h7H,2,4H2,1H3/t5-/m1/s1
