11
gdb 207	9.15078	3.49098	2.53565	1.7218	47.62	-0.1947	0.029	0.2237	483.7409	0.086736	-285.306999	-285.301863	-285.300919	-285.33518	19.259	
N	 0.0218640503	 1.4302882792	 0.1718161459	-0.60343
C	 0.0118392001	 0.033076455	 0.0417921269	 0.216966
C	-1.0591807201	-0.8101585342	-0.0050357322	-0.079845
O	-0.6369431572	-2.1137974213	-0.0425534739	-0.144014
C	 0.7142162693	-2.0880692391	-0.0274694354	 0.012882
C	 1.1750997328	-0.8116853242	 0.0262157117	-0.241944
H	 0.7728919216	 1.8622813016	-0.351335644	 0.244352
H	-0.8553138019	 1.8556302783	-0.0994625026	 0.242686
H	-2.1251254197	-0.658702473	-0.0086162208	 0.118902
H	 1.203024726	-3.0480476915	-0.0587719956	 0.131021
H	 2.2063514687	-0.4954169908	 0.0594081698	 0.102423
217.1825	312.9549	373.4812	607.9051	631.5764	662.4447	681.6968	749.0072	776.0013	814.7644	885.7377	991.22	1063.0029	1090.7586	1110.6182	1223.83	1283.5762	1324.8091	1443.2044	1541.618	1645.956	1671.568	3248.7437	3278.712	3283.9231	3535.0771	3623.5432
NC1=COC=C1	Nc1cocc1	
InChI=1S/C4H5NO/c5-4-1-2-6-3-4/h1-3H,5H2	InChI=1S/C4H5NO/c5-4-1-2-6-3-4/h1-3H,5H2
