16
gdb 1168	3.9473	1.8662	1.76828	3.7159	60.69	-0.288	0.0337	0.3217	795.2124	0.134838	-325.794624	-325.786111	-325.785167	-325.826809	30.144	
C	-0.0198222493	 1.5530032575	 0.0129150859	-0.404073
C	-0.0084209246	 0.0084116611	 0.0290860699	 0.083273
C	 0.7539647936	-0.5184359437	 1.2649500978	-0.404078
C	-1.4553755283	-0.5391505654	 0.0174091563	-0.079035
O	-2.0993687169	-0.0715946296	 1.188005395	-0.423907
C	 0.649137847	-0.4837250053	-1.1915330781	 0.256488
N	 1.1598010875	-0.8738212548	-2.1524121251	-0.340739
H	 0.9991864637	 1.9475669267	 0.0269570286	 0.129765
H	-0.5218023562	 1.9321282742	-0.8816334059	 0.128337
H	-0.5550702116	 1.915684176	 0.8924269102	 0.143639
H	 0.2341548964	-0.1969424884	 2.1693849402	 0.143627
H	 0.8016779295	-1.6109724209	 1.2599389716	 0.128338
H	 1.7756846987	-0.1311265369	 1.2833112171	 0.129772
H	-1.9645709581	-0.1885552342	-0.8922725471	 0.105869
H	-1.4231452689	-1.6380576265	-0.0155047174	 0.10587
H	-3.0007005624	-0.4055929798	 1.1924998211	 0.296854
124.0749	158.8574	186.9304	203.4522	221.416	243.4327	287.6672	357.2801	359.6686	471.629	565.4955	581.4461	717.9856	883.364	936.0701	973.2289	976.6802	1050.9533	1088.3991	1186.075	1195.9407	1232.3718	1285.0417	1297.9027	1394.2364	1410.2729	1458.9894	1482.3144	1487.2935	1496.8981	1508.4093	1523.2639	2353.4869	2986.0858	3023.5243	3049.5657	3052.8101	3121.9313	3124.4709	3141.5476	3144.8696	3841.504
CC(C)(CO)C#N	CC(C)(CO)C#N	
InChI=1S/C5H9NO/c1-5(2,3-6)4-7/h7H,4H2,1-2H3	InChI=1S/C5H9NO/c1-5(2,3-6)4-7/h7H,4H2,1-2H3
