14
gdb 536	15.46437	1.39898	1.37994	4.1439	51.52	-0.2771	0.0095	0.2866	860.792	0.118294	-307.596472	-307.589259	-307.588314	-307.62831	23.614	
C	 0.0082327199	 1.4252836872	-0.1150919477	-0.385469
C	-0.1822284619	-0.085886593	 0.0414212551	-0.17424
C	-1.6045958145	-0.4428674978	 0.4566470193	-0.069627
O	-1.7310448801	-1.8531172669	 0.685353413	-0.174463
C	-2.3804607534	-2.588310118	-0.2339363184	 0.17151
O	-2.5011433615	-3.7733558897	-0.1513648954	-0.275051
H	 1.0342045829	 1.6602097755	-0.4106572031	 0.126837
H	-0.6599495889	 1.8369523134	-0.8795066806	 0.120236
H	-0.1961910901	 1.9520382646	 0.8233291271	 0.122752
H	 0.0516037592	-0.5976704972	-0.8998760163	 0.108796
H	 0.5090258643	-0.4825421188	 0.7930028893	 0.121393
H	-1.8725256326	 0.045243396	 1.3989501485	 0.12499
H	-2.3284029596	-0.1215834056	-0.3047801315	 0.109071
H	-2.7917820937	-1.9742033997	-1.0605167693	 0.073264
46.5567	92.7223	150.921	231.9213	276.1629	381.1896	399.4279	678.1031	756.4455	889.3484	903.2911	1029.1363	1045.4821	1055.4172	1129.6722	1141.1051	1222.8719	1295.7449	1332.3641	1337.4357	1408.5164	1416.4161	1435.4905	1489.6554	1500.8145	1501.6214	1515.1736	1867.0789	2932.8181	3015.8333	3033.684	3037.9707	3068.7537	3086.6905	3104.6331	3114.3784
CCCOC=O	CCCOC=O	
InChI=1S/C4H8O2/c1-2-3-6-4-5/h4H,2-3H2,1H3	InChI=1S/C4H8O2/c1-2-3-6-4-5/h4H,2-3H2,1H3
