14
gdb 4165	2.56764	1.96749	1.20955	1.199	70.37	-0.2378	-0.0393	0.1985	959.2746	0.105954	-378.611657	-378.603732	-378.602788	-378.644107	28.997	
O	 0.0228059267	 1.3895634676	 0.3879492095	-0.382281
N	 0.0923105448	 0.0071268819	 0.2482562754	-0.187132
C	-1.0482435931	-0.5061226752	-0.0679959395	 0.224205
C	-1.0692066939	-1.9239208366	-0.2414267512	 0.254303
C	-1.1583634469	-3.1141736786	-0.4018293341	-0.41192
C	-2.3200697002	 0.2488731901	-0.2385992736	-0.086436
C	-3.2434562156	-0.1100010529	-1.3565941105	-0.242903
N	-3.6126364554	-0.4122075468	 0.0251851994	-0.316719
H	 0.9219878048	 1.6132215906	 0.6513835575	 0.316018
H	-1.2076141527	-4.1668009286	-0.5374550728	 0.208678
H	-2.2691794058	 1.2790418195	 0.0880559397	 0.128443
H	-3.8183220149	 0.6798037046	-1.8313188669	 0.128694
H	-2.9492709906	-0.9276233518	-2.0087042986	 0.127795
H	-3.4530373672	-1.4016539438	 0.2087220858	 0.239255
72.0622	146.0654	181.1006	230.4072	274.3379	357.4408	417.6435	473.2217	556.4048	600.9851	610.4964	678.3001	686.7386	717.2462	830.7323	906.6288	973.0017	992.4137	1015.9754	1103.6854	1144.2907	1177.4065	1265.339	1283.3973	1308.653	1365.8891	1420.8586	1504.0817	1663.7559	2223.5802	3113.9695	3200.6516	3210.3474	3483.6993	3499.134	3818.4489
ON=C(C#C)C1CN1	ON=C(C#C)[C@H]1CN1	
InChI=1S/C5H6N2O/c1-2-4(7-8)5-3-6-5/h1,5-6,8H,3H2	InChI=1S/C5H6N2O/c1-2-4(7-8)5-3-6-5/h1,5-6,8H,3H2/t5-/m1/s1
