17
gdb 2049	4.69817	2.3276	2.09372	1.2976	63.82	-0.2406	0.0769	0.3175	705.5747	0.148147	-309.68514	-309.678225	-309.677281	-309.715279	27.236	
C	-0.0452282655	 1.5630636852	 0.0220738054	-0.462983
C	 0.0694898145	 0.0559304553	 0.0521757295	 0.418654
O	-1.0981854698	-0.5928815017	-0.4041180895	-0.474878
C	 1.3248706942	-0.7279432539	-0.2498183269	-0.116582
C	 2.5819801914	-0.0592163875	 0.3172156936	-0.242411
C	 1.9329892375	-0.0762722469	 1.7421704198	-0.242884
C	 0.6871511459	-0.7483534972	 1.156584496	-0.08032
H	 0.8409208902	 2.0608563588	 0.4216532511	 0.122032
H	-0.183853211	 1.9170355082	-1.0074492014	 0.104336
H	-0.9129752063	 1.8844594502	 0.6069407852	 0.1255
H	-1.1811873685	-0.4132133167	-1.3472746947	 0.278446
H	 1.3039080247	-1.5012383153	-1.0093009485	 0.079613
H	 3.4610368129	-0.70526883	 0.2631299147	 0.104842
H	 2.8507750049	 0.9167511713	-0.1002985379	 0.093682
H	 2.475050768	-0.730753206	 2.4279346495	 0.105757
H	 1.7839602866	 0.8884699098	 2.2377425453	 0.095977
H	 0.1072804603	-1.5340445538	 1.6253512389	 0.091219
191.9941	232.6281	256.5232	287.4244	335.7619	403.1364	427.9002	493.3592	663.3838	706.2971	786.923	851.2566	869.7613	924.4759	959.4633	974.8437	994.0534	1007.2628	1029.5465	1093.8606	1098.2141	1114.22	1184.8092	1220.2261	1246.0464	1253.6962	1278.0311	1280.3127	1325.065	1413.21	1441.3209	1475.9093	1496.7836	1502.1698	1508.319	3025.385	3043.1737	3051.4406	3088.356	3093.9656	3112.3924	3130.1779	3173.0576	3190.0307	3792.8772
CC1(O)C2CCC12	C[C@@]1(O)[C@H]2CC[C@@H]12	
InChI=1S/C6H10O/c1-6(7)4-2-3-5(4)6/h4-5,7H,2-3H2,1H3	InChI=1S/C6H10O/c1-6(7)4-2-3-5(4)6/h4-5,7H,2-3H2,1H3/t4-,5+,6+
