12
gdb 4275	4.24853	1.89976	1.31384	6.8005	59.88	-0.2372	-0.0312	0.206	841.0971	0.085406	-414.7103	-414.70376	-414.702815	-414.741001	24.508	
N	 0.0860300016	 1.3708855218	 0.1704122987	-0.570625
C	-0.0502591763	 0.0157928573	 0.0594079533	 0.461626
C	-1.1962437431	-0.7032157748	 0.0243151992	-0.347782
C	-1.1566336893	-2.1531725343	-0.0215753607	 0.388777
O	-2.1310032804	-2.8713281441	-0.0512848655	-0.351584
N	 0.162039806	-2.7301958659	-0.0373332742	-0.293838
C	 1.1631550541	-1.9638224857	-0.0114524747	 0.123871
O	 1.1655674317	-0.5936278456	 0.0368139592	-0.21467
H	 0.9620537254	 1.7540942916	-0.1507854508	 0.270401
H	-0.7277897772	 1.9209100314	-0.0536726117	 0.274274
H	-2.158300997	-0.2078178155	 0.0358536522	 0.109489
H	 2.1885391744	-2.3229734763	-0.024810555	 0.150062
123.3769	185.5615	328.0523	366.0939	435.97	470.7968	491.3112	554.0882	585.3139	695.0369	772.9746	785.0347	846.3482	906.9581	925.2539	961.2678	1060.8235	1117.4093	1244.0886	1292.3898	1398.6792	1437.0712	1617.8505	1661.2666	1736.0038	1797.3005	3183.113	3216.9271	3588.7778	3703.6156
NC1=CC(=O)N=CO1	Nc1cc(=O)nco1	
InChI=1S/C4H4N2O2/c5-3-1-4(7)6-2-8-3/h1-2H,5H2	InChI=1S/C4H4N2O2/c5-3-1-4(7)6-2-8-3/h1-2H,5H2
