11
gdb 3764	4.12512	3.63054	1.95497	2.5479	47.92	-0.2446	-0.0053	0.2392	602.9633	0.079569	-376.609234	-376.603241	-376.602297	-376.639306	20.6	
C	 0.1018438344	 1.4199062049	-0.0589375706	-0.329499
N	 0.0707436513	-0.022722204	-0.0121756512	-0.086623
N	 0.1929010684	-0.7925237882	-1.1517811087	-0.233873
C	 0.1169510805	-1.9937212463	-0.707819204	 0.104867
O	-0.0458470618	-2.0998524155	 0.6306098956	-0.19859
C	-0.0793617598	-0.7843310891	 1.114854238	 0.494562
O	-0.2121220677	-0.4786274386	 2.2658104534	-0.396606
H	 1.0548501228	 1.7713210731	-0.4639429979	 0.149734
H	-0.7153123785	 1.8025444239	-0.6766746608	 0.149729
H	-0.015020733	 1.7745567878	 0.9660624091	 0.173418
H	 0.1700029735	-2.8977147378	-1.2921952229	 0.17288
114.1392	160.1639	260.3939	288.2039	526.54	638.0128	673.5089	746.3395	786.8812	840.7111	945.7803	990.0662	1020.2962	1160.5709	1178.7205	1277.1854	1310.5699	1413.0716	1450.5187	1482.5562	1515.6397	1636.2979	1901.0956	3048.499	3114.4814	3157.6883	3289.0182
CN1N=COC1=O	Cn1ncoc1=O	
InChI=1S/C3H4N2O2/c1-5-3(6)7-2-4-5/h2H,1H3	InChI=1S/C3H4N2O2/c1-5-3(6)7-2-4-5/h2H,1H3
