17
gdb 2689	12.40115	0.82705	0.79067	1.1704	70.21	-0.2435	0.0616	0.305	1445.316	0.145821	-309.687078	-309.677815	-309.67687	-309.72287	30.057	
C	-0.039660127	 1.3790711283	 0.0505781765	-0.228512
O	-0.0012237091	-0.026657676	 0.0080038532	-0.226868
C	 0.6513328929	-0.523959071	-1.1376878513	-0.041909
C	 0.6240698654	-2.0540888461	-1.0627257971	-0.349534
C	 1.2774740207	-2.6769691724	-2.2073278077	 0.038126
C	 1.8231213429	-3.1635689329	-3.163958868	 0.073343
C	 2.479728612	-3.7670991978	-4.3151525807	-0.496425
H	 0.9715902243	 1.8160972104	 0.0652591189	 0.104096
H	-0.5808157905	 1.8002034881	-0.8117635016	 0.104098
H	-0.5606490379	 1.6649683355	 0.9676072402	 0.127107
H	 0.1481112502	-0.1820847791	-2.0568305935	 0.094761
H	 1.693106953	-0.1668099943	-1.1834700825	 0.094764
H	 1.1069250464	-2.3629326981	-0.1275671296	 0.134011
H	-0.42144626	-2.3780267853	-0.9918021541	 0.134007
H	 2.4714353246	-4.8607889229	-4.2487578771	 0.147501
H	 1.9813888138	-3.4898619036	-5.2508042088	 0.145719
H	 3.5256606683	-3.4494352927	-4.3910971769	 0.145715
14.7267	79.7056	80.9986	104.9283	212.2553	234.5591	241.6238	320.1522	394.6794	409.321	514.0474	777.0457	796.4751	994.3938	1052.3706	1054.5549	1055.2811	1086.925	1158.907	1172.1757	1182.5052	1227.3206	1232.2667	1298.904	1315.3821	1414.6121	1417.8995	1478.5819	1478.916	1479.8713	1482.4896	1486.1909	1504.6692	1531.53	2376.132	2960.5625	2973.5016	2994.6285	3012.6119	3025.6003	3029.1159	3065.0398	3085.2211	3085.9478	3113.4418
COCCC#CC	COCCC#CC	
InChI=1S/C6H10O/c1-3-4-5-6-7-2/h5-6H2,1-2H3	InChI=1S/C6H10O/c1-3-4-5-6-7-2/h5-6H2,1-2H3
