15
gdb 3576	4.67149	3.00623	2.49291	1.7951	59.18	-0.228	0.0573	0.2853	604.7126	0.124609	-308.428791	-308.422555	-308.421611	-308.45927	23.673	
C	-0.0363532901	 1.6203558791	-0.0282080292	-0.398786
C	 0.1420108649	 0.1037376147	 0.0301086917	-0.001601
C	 1.3855553964	-0.7170200235	-0.2179344181	-0.120036
C	 2.663146168	-0.1598354083	 0.4823338166	 0.020608
O	 2.3479099562	 1.0620106323	 1.1649408752	-0.240286
C	 2.0061452221	-0.187069092	 1.7823896732	 0.020608
C	 0.6939774559	-0.7456977671	 1.1505272555	-0.120045
H	 0.7565088987	 2.1021765282	-0.6025083315	 0.127503
H	-0.9925091303	 1.8593865591	-0.5058109577	 0.097296
H	-0.0352511286	 2.0694144274	 0.9662388999	 0.127534
H	-0.7043629349	-0.4241535155	-0.4087204212	 0.093564
H	 1.429447192	-1.5077955189	-0.9564232535	 0.090052
H	 3.6928479194	-0.3215981803	 0.187455661	 0.106767
H	 2.3824363087	-0.3759077658	 2.7804632585	 0.106768
H	 0.1390236514	-1.5613139194	 1.5970857597	 0.090052
41.2906	224.4065	260.3289	421.2009	506.9929	682.5392	686.586	724.1482	759.3705	819.6613	853.4634	869.6721	925.7983	930.1334	976.1923	1003.3028	1024.9751	1046.36	1068.1592	1089.1897	1116.4204	1190.341	1234.2365	1246.2722	1280.4385	1320.1734	1381.9101	1424.0755	1437.7167	1491.5326	1494.6474	3043.4365	3104.5154	3120.978	3137.6762	3178.4931	3188.2596	3190.535	3201.7961
CC1C2C3OC3C12	C[C@H]1[C@H]2[C@H]3O[C@H]3[C@@H]12	
InChI=1S/C6H8O/c1-2-3-4(2)6-5(3)7-6/h2-6H,1H3	InChI=1S/C6H8O/c1-2-3-4(2)6-5(3)7-6/h2-6H,1H3/t2-,3+,4-,5+,6-
