11
gdb 3641	9.43113	1.98609	1.6406	2.7542	60.83	-0.2328	-0.0054	0.2274	695.3336	0.080184	-302.286171	-302.280451	-302.279507	-302.315481	21.442	
C	-0.0231726766	-1.1685584814	-0.0030504299	-0.426185
C	-0.0261629595	 0.0346197468	 0.0034872482	 0.276374
C	 0.0170806276	 1.4518861058	 0.0105505471	 0.207316
N	-1.1037048764	 2.1885353745	 0.0291450728	-0.286979
N	-0.6638149437	 3.4542844094	 0.0302016801	-0.18099
C	 0.6885483065	 3.5615775836	 0.0131081346	-0.023793
C	 1.1742489904	 2.2756364039	-0.0001545751	-0.293225
H	-0.0332359059	-2.2301278141	-0.0086626108	 0.191325
H	-1.3405383467	 4.1987240789	 0.0430695802	 0.280939
H	 1.182954743	 4.5198378511	 0.0117902762	 0.139272
H	 2.2031559313	 1.9582846014	-0.0153180535	 0.115945
170.1551	175.8905	466.2165	534.0386	537.3057	581.8978	591.8927	662.3883	664.0152	729.8003	773.8498	853.1746	945.8217	988.3661	1074.2773	1108.0111	1213.5536	1292.131	1370.3746	1458.9998	1479.0943	1556.1707	2241.4284	3263.4813	3286.6717	3505.5382	3672.2993
C#CC1=NNC=C1	C#Cc1n[nH]cc1	
InChI=1S/C5H4N2/c1-2-5-3-4-6-7-5/h1,3-4H,(H,6,7)	InChI=1S/C5H4N2/c1-2-5-3-4-6-7-5/h1,3-4H,(H,6,7)
