15
gdb 1220	8.07012	1.10244	1.00954	3.4013	59.61	-0.2524	-0.0239	0.2285	1105.0328	0.121452	-345.688382	-345.680001	-345.679057	-345.722452	27.576	
C	-0.0257494328	 1.5214638988	 0.0290660633	-0.474901
C	 0.0606879096	 0.0109653987	 0.1320252601	 0.388878
O	 1.0994945052	-0.5622661268	 0.3609898204	-0.286177
C	-1.2522583201	-0.7495632493	-0.0565285114	-0.318469
C	-1.0496016211	-2.2519935502	-0.2789671985	-0.265144
C	-2.3145943229	-3.0354375343	-0.0272796208	 0.157111
O	-2.8224408538	-3.8051689345	-0.8003742562	-0.237605
H	 0.9180796503	 1.971575763	 0.3382766756	 0.148142
H	-0.2394170194	 1.8063030697	-1.0079880012	 0.147499
H	-0.8474529964	 1.9100476806	 0.6401075903	 0.137895
H	-1.8488658606	-0.5706287481	 0.8516570498	 0.131024
H	-1.8259009597	-0.2944003626	-0.8725097967	 0.129295
H	-0.6891048413	-2.4668268784	-1.2878168187	 0.128509
H	-0.2831467324	-2.5954061964	 0.4287536832	 0.146662
H	-2.7713985547	-2.8471759402	 0.9750147606	 0.067283
52.7951	62.9212	87.9399	123.7569	187.6402	307.5792	373.2888	473.1079	515.7685	595.996	752.7344	807.9426	828.8746	955.6404	966.2924	1025.656	1092.667	1117.3173	1175.9137	1195.026	1260.5124	1310.7362	1369.0035	1385.1142	1431.0044	1450.4962	1463.4225	1467.3756	1476.9187	1816.6149	1838.8324	2835.9289	3003.9685	3036.05	3036.9656	3062.7826	3097.9438	3113.8272	3154.7452
CC(=O)CCC=O	CC(=O)CCC=O	
InChI=1S/C5H8O2/c1-5(7)3-2-4-6/h4H,2-3H2,1H3	InChI=1S/C5H8O2/c1-5(7)3-2-4-6/h4H,2-3H2,1H3
