15
gdb 4520	3.71124	1.69987	1.17719	1.1345	65.15	-0.1582	0.057	0.2152	968.4704	0.119785	-395.994234	-395.985815	-395.98487	-396.026522	31.154	
N	 0.1797940111	 1.3946195953	 0.1245430199	-0.607437
C	 0.0085212637	-0.000711013	-0.0011238246	 0.292031
C	-1.1118618644	-0.7976281298	-0.0668003923	-0.293955
C	-0.673176704	-2.1629296049	-0.0649348187	 0.185724
N	-1.4815803597	-3.3118085856	-0.2107261633	-0.619234
C	 0.6954206131	-2.1407580834	-0.0130659893	 0.223377
O	 1.5978720475	-3.1686085702	 0.0363251734	-0.444469
N	 1.1136515794	-0.8141737938	 0.002565475	-0.324288
H	 0.4810898191	 1.8251456915	-0.7457719594	 0.240681
H	-0.6922532099	 1.83266881	 0.3951363242	 0.243603
H	-2.1320793603	-0.4528464851	-0.1477439067	 0.075797
H	-2.3415964369	-3.2291565768	 0.3192287907	 0.236549
H	-0.989061301	-4.1349131315	 0.1188990981	 0.23731
H	 1.7899215112	-3.4688953274	-0.8607586211	 0.297866
H	 2.0297923411	-0.5148394853	 0.2899113942	 0.256443
126.9777	170.5807	192.3613	245.7691	261.9803	292.3174	309.4401	317.8412	432.1581	522.4497	603.749	633.7744	657.3517	665.8344	740.5038	810.6142	837.8381	848.3262	1029.0858	1071.0549	1156.9958	1186.803	1209.8246	1250.0832	1275.4758	1362.5908	1475.4812	1493.2991	1582.1098	1645.0628	1650.4329	1692.0074	3237.6834	3481.5618	3508.5054	3593.1308	3595.2814	3674.9334	3738.061
NC1=CC(N)=C(O)N1	Nc1cc(N)c(O)[nH]1	
InChI=1S/C4H7N3O/c5-2-1-3(6)7-4(2)8/h1,7-8H,5-6H2	InChI=1S/C4H7N3O/c5-2-1-3(6)7-4(2)8/h1,7-8H,5-6H2
