16
gdb 2413	3.61281	3.26909	2.16227	2.0425	61.78	-0.1989	0.0725	0.2713	658.8006	0.13655	-325.684055	-325.677377	-325.676433	-325.714204	25.697	
C	 0.0177305857	 1.5270075278	-0.0271047218	-0.333309
N	 0.0433925777	 0.0643624799	 0.0373667529	-0.106959
C	-1.1133742611	-0.7090536225	 0.6414871032	-0.079082
C	-0.1288561256	-1.907656446	 0.6974354793	-0.211502
C	 0.6222307079	-0.6593125197	 1.2400365404	-0.051254
C	-0.6382874922	-0.3871951556	 2.1045795991	 0.150572
O	-0.772386548	 0.8849763788	 2.6791492438	-0.429488
H	 1.0324520072	 1.8678970815	-0.2622497021	 0.112824
H	-0.6186719037	 1.8096428137	-0.8738690964	 0.10929
H	-0.3289649372	 2.0481787185	 0.8683405264	 0.125982
H	-2.1186405446	-0.678580107	 0.21570363	 0.074743
H	-0.3453159217	-2.7155630898	 1.3983208702	 0.091959
H	 0.2163078586	-2.2519104124	-0.2748500182	 0.112716
H	 1.6721770714	-0.5694244126	 1.5238410937	 0.080664
H	-0.872305112	-1.168500154	 2.8436095751	 0.066609
H	-1.6423813522	 0.9391799993	 3.0867676845	 0.286236
135.1593	241.9046	255.973	293.5481	348.0607	390.4303	526.1301	672.0096	731.5362	751.7554	792.5836	877.8863	884.604	891.0411	1013.7878	1035.4262	1077.2847	1098.446	1124.7205	1153.1048	1161.3179	1185.5157	1194.1873	1200.5117	1210.2216	1239.6686	1281.5844	1316.1939	1432.5915	1452.5257	1484.1747	1498.0448	1518.2194	2975.5414	3023.7179	3081.6669	3081.9059	3092.5444	3105.7787	3112.2322	3175.7653	3819.3062
CN1C2CC1C2O	CN1[C@H]2C[C@@H]1[C@H]2O	
InChI=1S/C5H9NO/c1-6-3-2-4(6)5(3)7/h3-5,7H,2H2,1H3	InChI=1S/C5H9NO/c1-6-3-2-4(6)5(3)7/h3-5,7H,2H2,1H3/t3-,4+,5-
