14
gdb 1395	6.6472	1.438	1.23912	3.5402	63.46	-0.2807	0.0212	0.3019	916.1111	0.111784	-287.427764	-287.419937	-287.418992	-287.459696	27.602	
C	-0.0609721315	 1.5803691446	-0.0278329434	-0.390572
C	-0.0326392541	 0.0423336335	 0.0185394847	-0.137324
C	 0.760274958	-0.5051818685	 1.2417446732	-0.352596
C	 2.1654082255	-0.1241829169	 1.2042139149	 0.293714
C	 3.3228977061	 0.194388656	 1.1495066166	-0.429367
C	-1.3926557895	-0.5053116432	 0.0352961573	 0.26592
N	-2.4650304344	-0.9355537196	 0.0619046983	-0.318807
H	 0.9624151716	 1.9613558951	-0.0491798236	 0.144273
H	-0.5887051224	 1.9326222038	-0.9169932401	 0.139223
H	-0.5667329144	 1.9850049318	 0.8536068439	 0.136971
H	 0.4566143141	-0.3307170384	-0.8889479616	 0.140799
H	 0.2924938947	-0.1350263733	 2.1619939677	 0.149899
H	 0.6721143218	-1.5970320621	 1.2660896967	 0.153518
H	 4.3488453846	 0.4672602873	 1.1171025353	 0.204349
77.8633	129.3768	190.3922	224.0565	272.4355	332.0072	351.7391	495.4257	540.6295	565.7379	628.2303	659.6714	821.5161	892.9734	910.228	982.0337	1063.9135	1096.6388	1133.2519	1243.5997	1295.5003	1333.5591	1365.4856	1412.8924	1471.6569	1496.466	1498.8994	2240.5962	2357.7152	3035.2606	3046.8859	3053.0922	3075.6943	3128.0788	3139.8673	3504.007
CC(CC#C)C#N	C[C@@H](CC#C)C#N	
InChI=1S/C6H7N/c1-3-4-6(2)5-7/h1,6H,4H2,2H3	InChI=1S/C6H7N/c1-3-4-6(2)5-7/h1,6H,4H2,2H3/t6-/m0/s1
