15
gdb 1735	5.25213	1.79579	1.6259	1.9521	62.32	-0.2586	0.0478	0.3065	800.8411	0.122385	-308.46712	-308.459489	-308.458545	-308.498736	27.851	
C	 0.0119604576	 1.5850462868	-0.2899520518	-0.458928
C	-0.0498232453	 0.0852720447	-0.116180767	 0.422704
C	-1.3800617484	-0.4890167564	 0.3733778479	-0.414255
C	-1.8306014704	 0.0813452505	 1.6386765389	 0.311843
C	-2.1966300944	 0.5608177423	 2.6779716403	-0.447782
C	 0.8340704933	-0.7911624534	-0.8977643637	-0.230421
O	 1.106056634	-0.5127793462	 0.4788659689	-0.263934
H	 1.0080733844	 1.8887441841	-0.6195546036	 0.126778
H	-0.7212685148	 1.9205466526	-1.0315520783	 0.119424
H	-0.2119148034	 2.0866285428	 0.6558676264	 0.143815
H	-2.1439367887	-0.3177809064	-0.3971906855	 0.132188
H	-1.2712527498	-1.5743104732	 0.4764399947	 0.1377
H	-2.5202863485	 0.9741917747	 3.600879175	 0.198152
H	 0.5320568429	-1.8149507664	-1.1173913041	 0.109954
H	 1.5308994916	-0.3536216064	-1.6116454481	 0.112761
67.8696	144.0762	192.2801	328.4963	334.1382	358.1807	375.361	400.8822	536.99	619.6422	644.262	738.2808	839.894	882.9117	923.2568	932.0284	983.503	1043.5075	1104.0798	1135.1324	1163.5343	1220.6976	1281.6972	1320.403	1401.3895	1424.9307	1453.1566	1481.5681	1498.1542	1534.0982	2239.8264	3019.7665	3041.1156	3068.4493	3077.8095	3109.1747	3131.1903	3162.6197	3506.5051
CC1(CC#C)CO1	C[C@@]1(CC#C)CO1	
InChI=1S/C6H8O/c1-3-4-6(2)5-7-6/h1H,4-5H2,2H3	InChI=1S/C6H8O/c1-3-4-6(2)5-7-6/h1H,4-5H2,2H3/t6-/m1/s1
