17
gdb 3445	4.37654	2.72342	2.0338	1.4629	62.63	-0.2268	0.0871	0.3139	691.3805	0.149842	-309.708282	-309.701884	-309.700939	-309.738208	25.026	
C	-0.0104101389	 1.5615626166	-0.009958583	-0.399536
C	 0.0336313292	 0.0340950415	 0.0436678432	 0.005192
C	 0.7978388815	-0.5956823391	-1.147890988	-0.100281
O	 1.352135813	-1.8282230923	-0.6946090701	-0.256672
C	 1.5319373281	-1.7324206317	 0.6957264962	 0.118008
C	 2.2706823785	-0.5408098242	 1.2494634968	-0.330398
C	 0.7484873665	-0.5773339277	 1.243374698	-0.075384
H	 0.9988274939	 1.9850310526	 0.0309448409	 0.117274
H	-0.485345047	 1.912738438	-0.9328006725	 0.114299
H	-0.5786125516	 1.9710458153	 0.8310117565	 0.116651
H	-0.9939715775	-0.3514944065	 0.0473010854	 0.078654
H	 0.1584823353	-0.8105291855	-2.0088829625	 0.108494
H	 1.5962707322	 0.0827847689	-1.4855573026	 0.091469
H	 1.6030614792	-2.7069829904	 1.1636842519	 0.098958
H	 2.7617831686	-0.6625286045	 2.2089540808	 0.111832
H	 2.7936508665	 0.1188964806	 0.5651296931	 0.11588
H	 0.2205047124	-0.6370509015	 2.1881558757	 0.085562
154.0319	223.7389	247.8517	319.8553	415.4645	495.1116	605.3857	696.7903	752.5098	802.5754	861.069	906.2637	943.8436	960.3757	972.9285	1008.2547	1036.9032	1057.2691	1089.139	1095.815	1134.9983	1167.9575	1172.7964	1200.2168	1242.7835	1316.2215	1318.615	1350.9122	1384.2854	1404.0189	1412.846	1477.5769	1495.4723	1500.2006	1523.8779	2983.9554	3021.1835	3030.356	3081.9108	3095.9812	3104.5376	3131.8601	3171.6476	3186.5842	3216.8632
CC1COC2CC12	C[C@H]1CO[C@H]2C[C@@H]12	
InChI=1S/C6H10O/c1-4-3-7-6-2-5(4)6/h4-6H,2-3H2,1H3	InChI=1S/C6H10O/c1-4-3-7-6-2-5(4)6/h4-6H,2-3H2,1H3/t4-,5-,6-/m0/s1
