12
gdb 4731	7.08337	1.29984	1.09972	5.8065	66.73	-0.2215	-0.0406	0.1809	984.0114	0.085464	-377.555319	-377.548493	-377.547548	-377.586288	25.16	
N	-0.0306416081	 1.4314725557	 0.1556412237	-0.606747
C	 0.0075535986	 0.0411472844	 0.0407504307	 0.254528
C	-1.0410100289	-0.8401692433	 0.0017330368	-0.088683
O	-0.5939205205	-2.1253541589	-0.0254327634	-0.171363
C	 0.7625639199	-2.0659979636	-0.0109690841	 0.295011
C	 1.1867005707	-0.7658807791	 0.0327035329	-0.348928
C	 1.4800012099	-3.2807990379	-0.0414474649	 0.225029
N	 2.0908986069	-4.2651989395	-0.0670739964	-0.338558
H	 0.7365403783	 1.8936962525	-0.313067802	 0.254181
H	-0.9080483675	 1.8398847328	-0.1363684174	 0.251872
H	-2.1106857812	-0.7144890323	-0.002590759	 0.140259
H	 2.2117150619	-0.4310730806	 0.060817293	 0.1334
135.2258	157.6966	221.2169	327.2497	367.151	502.4154	534.5363	576.2236	616.6069	672.3718	691.5479	719.9271	739.6412	833.2359	966.3425	1005.5647	1105.5917	1166.1133	1182.2238	1266.0259	1337.2599	1447.8049	1541.1449	1647.5484	1671.0018	2341.2916	3263.8053	3282.4389	3552.1023	3642.9276
NC1=COC(=C1)C#N	Nc1coc(c1)C#N	
InChI=1S/C5H4N2O/c6-2-5-1-4(7)3-8-5/h1,3H,7H2	InChI=1S/C5H4N2O/c6-2-5-1-4(7)3-8-5/h1,3H,7H2
