13
gdb 408	6.11932	3.04137	2.41582	3.0447	50.74	-0.2483	-0.0234	0.2249	553.6489	0.107129	-286.477365	-286.471021	-286.470076	-286.507087	22.432	
C	-0.0253907602	 1.544554519	-0.0133728532	-0.472658
C	-0.0048470883	 0.0348217942	-0.0172992348	 0.22037
C	 0.7280849882	-0.7082033445	-1.0939174215	-0.267291
N	 1.2438728033	-0.71470123	 0.2711167197	-0.338488
C	-1.2067937421	-0.6460589203	 0.5530394053	 0.148914
O	-2.2281225286	-0.0806630977	 0.852637833	-0.261045
H	 0.8592177225	 1.950216948	-0.5135591477	 0.110847
H	-0.9168683899	 1.9161177898	-0.5256384197	 0.146172
H	-0.0551280799	 1.9294975103	 1.010755677	 0.137333
H	 0.3589461314	-1.6661724768	-1.4510717335	 0.128426
H	 1.2159551801	-0.0990464132	-1.8505302342	 0.125026
H	 2.0099949338	-0.0519330266	 0.3646218266	 0.240103
H	-1.0766248403	-1.7436149522	 0.6796973829	 0.082291
119.8987	188.6837	249.6985	332.9674	364.6573	393.3637	543.5109	763.5526	789.1531	888.4113	944.0406	970.2932	1014.9013	1052.2706	1057.0506	1122.8892	1149.017	1259.4428	1330.6218	1370.381	1410.3916	1429.5445	1478.248	1498.5125	1509.2145	1825.0881	2896.0851	3041.1591	3105.5855	3110.4222	3121.1064	3191.5516	3502.2919
CC1(CN1)C=O	C[C@]1(CN1)C=O	
InChI=1S/C4H7NO/c1-4(3-6)2-5-4/h3,5H,2H2,1H3	InChI=1S/C4H7NO/c1-4(3-6)2-5-4/h3,5H,2H2,1H3/t4-/m0/s1
