14
gdb 4509	3.55821	1.85214	1.23563	1.932	61.32	-0.2045	0.0118	0.2162	934.2451	0.107167	-415.895417	-415.887535	-415.886591	-415.927584	28.473	
C	-0.0660813901	 1.4030649965	 0.0740437989	-0.486562
C	-0.0039999978	-0.0775583513	-0.0424873586	 0.389671
N	 0.0531044924	-0.7858293804	-1.133891253	-0.38479
C	 0.093604162	-2.092945156	-0.6936921056	 0.304207
O	 0.1575313086	-3.1201006509	-1.5614860496	-0.425965
C	 0.0598800205	-2.1469841145	 0.6625196316	 0.166339
N	 0.0768646037	-3.1831633429	 1.5796364063	-0.597774
O	-0.0047581667	-0.8065349388	 1.0851303397	-0.202024
H	 0.7875317857	 1.790166718	 0.6403759369	 0.144538
H	-0.0575437901	 1.8394075421	-0.9251282273	 0.153534
H	-0.9759688306	 1.7198105705	 0.594619171	 0.144534
H	 0.1652342238	-2.7290767922	-2.443325609	 0.302858
H	-0.7623666933	-3.2409135872	 2.1462257886	 0.245717
H	 0.8867542817	-3.175039353	 2.1901100701	 0.245716
83.4035	178.3104	201.05	258.0549	274.0247	289.3736	365.5965	384.2303	523.0702	623.362	661.2527	666.0388	725.747	734.7346	832.7075	996.9197	1020.1617	1063.5294	1082.9187	1157.5117	1212.581	1339.9903	1365.8765	1411.9584	1423.3664	1475.0039	1480.6047	1608.8215	1659.3666	1771.71	3042.2275	3095.7742	3155.0293	3500.4344	3567.561	3808.7614
CC1=NC(O)=C(N)O1	Cc1nc(O)c(N)o1	
InChI=1S/C4H6N2O2/c1-2-6-4(7)3(5)8-2/h7H,5H2,1H3	InChI=1S/C4H6N2O2/c1-2-6-4(7)3(5)8-2/h7H,5H2,1H3
