17
gdb 2048	4.79475	2.37705	2.09727	1.6459	63.89	-0.2293	0.0827	0.312	705.0097	0.147821	-309.677276	-309.670313	-309.669369	-309.707558	26.755	
C	-0.0104510295	 1.5379865068	-0.0298034334	-0.465933
C	 0.0370040291	 0.0243937574	-0.0435606182	 0.309706
C	-1.1754671531	-0.6615939099	 0.5617268522	-0.456131
C	 0.6533222684	-0.7686199973	-1.1931077067	-0.171015
C	 1.9264058384	-0.0969245776	-1.6925893885	-0.106494
O	 2.4549572991	 0.0034034398	-0.3415715129	-0.287263
C	 1.3277037264	-0.7182084522	 0.1637064255	 0.060926
H	 0.9567628737	 1.968920832	-0.2958663151	 0.135979
H	-0.7679366743	 1.9190998972	-0.7241749118	 0.110963
H	-0.2668762034	 1.9006051318	 0.9721557509	 0.113317
H	-2.0839858137	-0.4251174629	-0.0040538873	 0.119345
H	-1.0635618541	-1.751227837	 0.5663930937	 0.113865
H	-1.3322907531	-0.3360835243	 1.5961166132	 0.118647
H	 0.1301352145	-1.5750920141	-1.690560239	 0.092344
H	 2.5572240651	-0.7581200512	-2.2975412013	 0.109208
H	 1.8402204612	 0.8798947916	-2.1830058857	 0.104555
H	 1.5104872852	-1.4651751501	 0.9295565744	 0.097982
180.7379	221.5717	235.3255	262.9804	312.7586	354.2836	442.1034	528.4512	668.3124	761.5125	829.9438	874.2701	950.094	958.2302	972.2787	986.0381	999.0212	1037.9665	1044.9735	1086.5147	1098.826	1160.1169	1167.7321	1216.4901	1247.5287	1301.787	1334.6053	1406.0906	1411.4554	1427.9537	1484.1311	1489.8616	1502.1505	1512.2971	1522.589	3022.8095	3023.3489	3030.533	3069.9512	3083.9043	3086.7573	3094.2206	3128.9012	3161.2606	3193.4424
CC1(C)C2COC12	CC1(C)[C@H]2CO[C@@H]12	
InChI=1S/C6H10O/c1-6(2)4-3-7-5(4)6/h4-5H,3H2,1-2H3	InChI=1S/C6H10O/c1-6(2)4-3-7-5(4)6/h4-5H,3H2,1-2H3/t4-,5+/m0/s1
