15
gdb 1482	4.64037	1.55131	1.32581	3.2115	55.07	-0.2795	0.0013	0.2808	906.6144	0.122964	-382.812383	-382.804246	-382.803302	-382.845631	27.628	
C	 0.0311887084	 1.6521260084	 0.0212855544	-0.384437
C	 0.0135751963	 0.1295733296	-0.0049554912	 0.088787
C	 0.720549032	-0.5117698493	 1.1909014608	-0.057881
O	 0.1439426241	-0.1264094943	 2.42008962	-0.414751
O	-1.3587889526	-0.3297304323	 0.0643840693	-0.204944
C	-1.9507757379	-0.7792786905	-1.0568338225	 0.171734
O	-3.0805406775	-1.1642974838	-1.0827170299	-0.273552
H	 1.059541269	 2.0167564724	-0.0640114272	 0.124808
H	-0.5504536739	 2.0632930536	-0.8081828621	 0.12368
H	-0.3865749468	 2.0142328229	 0.9629720478	 0.148215
H	 0.4668007802	-0.2478003255	-0.9320202319	 0.087446
H	 0.7127381762	-1.605106001	 1.0633459708	 0.098236
H	 1.7649447949	-0.1835127849	 1.2131040878	 0.115717
H	-0.7818028713	-0.3951490549	 2.3898247589	 0.297789
H	-1.2770428109	-0.7551769902	-1.9359053451	 0.079151
38.9747	104.1634	153.0626	211.9459	220.3854	324.1214	330.4857	423.5182	435.0471	589.4384	681.3864	857.3227	922.163	942.0379	1018.5454	1046.0987	1078.6055	1140.5615	1147.9366	1199.744	1242.336	1339.5357	1365.4025	1392.7526	1416.0546	1429.007	1437.2209	1482.7892	1496.7466	1497.3628	1865.1848	2946.17	2989.859	3018.898	3048.8724	3081.3826	3119.0105	3141.2712	3799.3959
CC(CO)OC=O	C[C@@H](CO)OC=O	
InChI=1S/C4H8O3/c1-4(2-5)7-3-6/h3-5H,2H2,1H3	InChI=1S/C4H8O3/c1-4(2-5)7-3-6/h3-5H,2H2,1H3/t4-/m0/s1
