15
gdb 1713	3.76522	2.49675	2.02387	2.0204	57.24	-0.2418	-0.029	0.2128	700.5223	0.123226	-345.647032	-345.639692	-345.638747	-345.678765	25.802	
C	-0.120036758	 1.7281628927	 0.1406908989	-0.454637
C	 0.0576377213	 0.225831507	-0.001355836	 0.345305
C	 0.7038579194	-0.3300852854	-1.2859124421	-0.32935
C	 1.7642557641	-0.9136996079	-0.3327733257	-0.067764
O	 1.1503936262	-0.2807075648	 0.8187851277	-0.325247
C	-1.2014158457	-0.5103451167	 0.4399912291	 0.124453
O	-1.9424541914	-1.1169408568	-0.2883270903	-0.247686
H	 0.8226571458	 2.2365114553	-0.0800635313	 0.13056
H	-0.8894991768	 2.0909592724	-0.5490784097	 0.133936
H	-0.4179443703	 1.9889017382	 1.1618769435	 0.131145
H	 0.0826912576	-1.0442040471	-1.8263708311	 0.135475
H	 1.0720005919	 0.4355918624	-1.9701463574	 0.111192
H	 1.7655231509	-2.0059157177	-0.2406949203	 0.112611
H	 2.7921123024	-0.5652009582	-0.4778765201	 0.110663
H	-1.3660711472	-0.4590580334	 1.540387505	 0.089345
59.1873	113.8699	215.5583	257.1224	304.7157	328.2639	382.3081	564.4516	683.4806	792.3581	865.4598	873.5147	929.9267	968.4329	993.7487	1002.9926	1017.9277	1134.6053	1160.9833	1207.2196	1220.2415	1263.3406	1284.6282	1348.0953	1398.2226	1406.7598	1480.4318	1488.4166	1496.0037	1528.8836	1833.3992	2881.1054	3029.7257	3033.9123	3074.7794	3089.8944	3106.9803	3118.1042	3150.8113
CC1(CCO1)C=O	C[C@]1(CCO1)C=O	
InChI=1S/C5H8O2/c1-5(4-6)2-3-7-5/h4H,2-3H2,1H3	InChI=1S/C5H8O2/c1-5(4-6)2-3-7-5/h4H,2-3H2,1H3/t5-/m0/s1
