16
gdb 522	17.88474	1.19749	1.15436	0.1495	65.57	-0.2397	0.0646	0.3043	1048.5765	0.141123	-234.48564	-234.477444	-234.4765	-234.519304	27.01	
C	 3.0765979133	-0.1564912434	-0.0554031112	-0.381332
C	 1.5923514583	-0.5219971621	-0.1169619247	-0.151856
C	 0.676328541	 0.6890749936	 0.1535228887	-0.330847
C	-0.7444931085	 0.3621441972	 0.0995237895	 0.029878
C	-1.9103047025	 0.0644135311	 0.0488870407	 0.098153
C	-3.3231348861	-0.2839053	-0.0097956254	-0.496486
H	 3.7076769109	-1.0289263779	-0.2499272063	 0.113349
H	 3.3288230004	 0.6088695129	-0.7980508459	 0.114751
H	 3.3485281731	 0.2377670281	 0.9302614171	 0.114751
H	 1.3464723282	-0.9381152997	-1.100399585	 0.106969
H	 1.3660201866	-1.3062551878	 0.614115376	 0.106969
H	 0.9209759831	 1.1124493831	 1.1375462149	 0.121102
H	 0.9014496275	 1.4801843547	-0.575083067	 0.121102
H	-3.8447109639	 0.2890553993	-0.7847692822	 0.144449
H	-3.4631180219	-1.346905112	-0.2364176557	 0.144601
H	-3.8250214392	-0.0819277231	 0.9432126049	 0.144449
15.976	82.4857	99.7163	220.6562	240.1517	278.1504	337.4026	386.8674	491.3415	742.9289	767.3728	872.2169	893.4737	1041.6081	1052.7731	1053.3883	1108.9585	1123.0975	1168.3801	1258.887	1306.8305	1320.93	1381.4238	1412.1028	1415.7436	1474.7427	1479.7028	1479.9746	1491.9165	1498.8347	1509.0171	2373.2457	3004.5897	3023.605	3028.4042	3030.1645	3039.7075	3071.198	3082.7805	3082.8152	3098.5232	3103.8841	15.9375	82.4855	99.716	220.6558	240.1521	278.1495	337.4023	386.8638	491.3404	742.9286	767.3727	872.2167	893.4736	1041.6081	1052.7734	1053.3886	1108.9584	1123.0974	1168.3799	1258.887	1306.8304	1320.9301	1381.4238	1412.1026	1415.7443	1474.7427	1479.7041	1479.9759	1491.9164	1498.8344	1509.017	2373.2454	3004.5897	3023.6051	3028.4042	3030.1644	3039.7075	3071.1981	3082.7804	3082.8152	3098.5232	3103.8842
CCCC#CC	CCCC#CC	
InChI=1S/C6H10/c1-3-5-6-4-2/h3,5H2,1-2H3	InChI=1S/C6H10/c1-3-5-6-4-2/h3,5H2,1-2H3
