13
gdb 1052	7.73587	2.15357	1.70266	2.1716	55.34	-0.2009	0.0513	0.2522	703.9166	0.103673	-340.667053	-340.660679	-340.659735	-340.697351	22.797	
C	-0.0010721489	 1.3753445052	 0.008280876	-0.234185
O	-0.0229555678	-0.0533053105	 0.0030942288	-0.270246
C	-1.2482441272	-0.5924030123	 0.0104539469	 0.492515
N	-2.401927428	 0.0214154564	 0.0215797837	-0.363224
C	-3.3388567072	-1.001696619	 0.0248876711	-0.091717
C	-2.7310988277	-2.2214533268	 0.0157458861	-0.109696
N	-1.3680441358	-1.946943518	 0.006264442	-0.332539
H	 1.0528878138	 1.6551800765	 0.0011546543	 0.128627
H	-0.5093762177	 1.7733413567	-0.8747046957	 0.140573
H	-0.4955869567	 1.7666801159	 0.9020105551	 0.140567
H	-4.3959013865	-0.7857151783	 0.0337733526	 0.106086
H	-3.107075276	-3.230236525	 0.0149039079	 0.126078
H	-0.6080228344	-2.6047963608	-0.0021174189	 0.26716
103.4961	152.8421	241.2007	311.9097	468.2863	500.271	634.7751	683.5904	706.2976	741.6575	839.3413	921.8026	993.7701	1075.3442	1081.6578	1138.0428	1182.531	1183.8298	1226.9533	1291.2272	1376.9944	1462.1985	1477.1583	1497.3512	1510.5766	1552.6259	1624.4736	3042.7617	3114.0176	3151.52	3252.6633	3287.0076	3678.857
COC1=NC=CN1	COc1ncc[nH]1	
InChI=1S/C4H6N2O/c1-7-4-5-2-3-6-4/h2-3H,1H3,(H,5,6)	InChI=1S/C4H6N2O/c1-7-4-5-2-3-6-4/h2-3H,1H3,(H,5,6)
