9
gdb 3640	10.20863	2.07599	1.72517	1.6863	53.73	-0.2809	-0.0666	0.2143	645.709	0.055518	-338.195462	-338.190085	-338.189141	-338.224631	19.038	
C	 0.0656466103	-1.1643409667	-0.0047099298	-0.343102
C	-0.0126188742	 0.0345941724	 0.002991646	 0.26212
C	-0.0907566475	 1.4429762975	 0.0118486158	 0.281685
N	-1.1552415955	 2.1985295651	 0.0296753282	-0.308743
C	-0.6041901899	 3.4515914778	 0.0294466785	 0.016574
N	 0.7018374033	 3.4889146066	 0.0125891769	-0.08999
O	 1.0600571715	 2.1442425532	 0.000484861	-0.190007
H	 0.1283607186	-2.2254455009	-0.0114386526	 0.218304
H	-1.1909093766	 4.3584528048	 0.042037126	 0.15316
168.8882	170.0996	434.3993	525.8385	613.5941	654.2685	659.0245	692.9799	768.2328	929.8574	932.3771	979.7948	1022.9086	1188.5161	1239.1906	1300.1254	1487.8558	1586.7915	2253.5065	3264.1069	3497.2672
C#CC1=NC=NO1	C#Cc1ncno1	
InChI=1S/C4H2N2O/c1-2-4-5-3-6-7-4/h1,3H	InChI=1S/C4H2N2O/c1-2-4-5-3-6-7-4/h1,3H
