16
gdb 3227	5.20034	2.65124	2.2784	1.6274	63.68	-0.2167	0.0743	0.2909	649.6229	0.137185	-288.552886	-288.546743	-288.545799	-288.582309	24.58	
C	-0.0291333588	 1.5130696665	 0.0091371778	-0.496234
C	-0.0229172117	 0.0133529742	 0.0020041809	 0.344767
C	-0.9169737104	-0.8583390726	 0.8434927697	-0.355285
C	 0.5801741781	-0.9921804008	 0.9560452824	-0.043162
N	 1.3184029035	-1.7304770237	-0.1461080669	-0.139104
C	 0.3658021238	-2.2500924893	-1.1469671967	-0.248905
C	 0.6547450994	-0.8009614696	-1.1269187018	-0.084363
H	 0.9534040812	 1.9161458209	-0.2627734107	 0.122323
H	-0.7608797279	 1.9136707072	-0.703467981	 0.120803
H	-0.2868348046	 1.9003667615	 0.9999020106	 0.119758
H	-1.3476332201	-0.3377182245	 1.6946657716	 0.113625
H	-1.5731024555	-1.6213232592	 0.4392481778	 0.111114
H	 1.1127097308	-0.8587444888	 1.8897126508	 0.099867
H	 0.8702936666	-2.833838369	-1.9123886277	 0.121192
H	-0.5938083539	-2.6569456822	-0.8503866148	 0.119074
H	 1.2418974195	-0.3140831908	-1.900741742	 0.094529
207.3658	214.4768	296.4962	379.2635	471.511	521.0265	607.7518	684.8124	749.424	799.4161	816.6419	893.6562	926.0131	968.8959	979.7071	1008.3794	1029.7877	1047.1673	1069.0967	1088.9738	1112.2995	1130.466	1142.6597	1219.237	1243.3986	1259.9769	1331.3964	1402.1944	1424.7389	1485.2324	1485.8849	1500.8063	1530.7515	3018.9201	3075.1954	3099.6419	3120.6806	3131.17	3146.3772	3184.2539	3198.948	3213.153
CC12CC1N1CC21	C[C@]12C[C@H]1N1C[C@@H]21	
InChI=1S/C6H9N/c1-6-2-4(6)7-3-5(6)7/h4-5H,2-3H2,1H3	InChI=1S/C6H9N/c1-6-2-4(6)7-3-5(6)7/h4-5H,2-3H2,1H3/t4-,5+,6+,7?/m1/s1
