19
gdb 2934	5.91402	1.71946	1.42661	0.158	72.92	-0.2336	0.0293	0.263	906.4304	0.172837	-273.804223	-273.79686	-273.795915	-273.835715	27.585	
C	-0.0180492688	 1.5724762281	 0.13825484	-0.38708
C	 0.0017795434	 0.0460054139	 0.0147252941	-0.175914
C	 0.6666021825	-0.4736312816	-1.2706280094	 0.007209
C	 0.7975355097	-2.021768681	-1.3123405196	-0.226398
C	 0.5729820296	-2.434039873	-2.7888279588	-0.254222
C	-0.140636711	-1.2340520292	-3.3656770683	-0.068513
C	-0.0848932182	-0.1801186142	-2.5536789945	-0.060153
H	 0.9968680498	 1.9847810121	 0.1067096676	 0.113087
H	-0.5884853529	 2.037836201	-0.6722606256	 0.116639
H	-0.4742918332	 1.8864913268	 1.0823399489	 0.111233
H	 0.5343782642	-0.3771341397	 0.876580612	 0.092156
H	-1.0229643852	-0.3450268351	 0.0657592461	 0.093435
H	 1.6660002792	-0.0120653999	-1.332238079	 0.070094
H	 1.7517539327	-2.3733708749	-0.9109024335	 0.092938
H	 0.0067544757	-2.4575587669	-0.690663613	 0.098923
H	 1.5229856403	-2.607263108	-3.3147089209	 0.1029
H	-0.0008712276	-3.3629538132	-2.8848533221	 0.099645
H	-0.6011115976	-1.2435783963	-4.347995103	 0.086963
H	-0.4922180328	 0.7992898212	-2.7805596111	 0.087059
84.2295	115.7122	199.0982	242.4761	303.284	389.4485	490.9257	600.7515	738.5004	753.3021	793.8031	848.045	856.9803	924.3887	948.108	972.7107	979.088	992.1389	1044.9239	1072.3845	1114.9376	1126.3607	1147.9435	1191.7228	1228.4736	1273.9192	1289.055	1315.1639	1326.5869	1345.5566	1374.1358	1391.5951	1412.4213	1482.6182	1486.9704	1499.8881	1500.3039	1506.8586	1685.3921	2961.5396	3004.1476	3012.8787	3030.9626	3036.5707	3047.2601	3054.3051	3093.3943	3096.9534	3101.3244	3175.5752	3201.4901
CCC1CCC=C1	CC[C@H]1CCC=C1	
InChI=1S/C7H12/c1-2-7-5-3-4-6-7/h3,5,7H,2,4,6H2,1H3	InChI=1S/C7H12/c1-2-7-5-3-4-6-7/h3,5,7H,2,4,6H2,1H3/t7-/m1/s1
