17
gdb 3216	3.4095	3.06275	2.14611	1.3866	63.34	-0.2476	0.072	0.3196	687.4892	0.148544	-309.687623	-309.680591	-309.679647	-309.718189	26.885	
C	-0.1283365409	 1.5970145961	-0.0598442671	-0.407934
C	 0.0369183509	 0.0828664036	-0.0494265401	-0.01778
C	 0.7161714698	-0.6108821145	-1.2391317076	-0.057639
C	 2.1631084694	-0.2233891933	-1.3424721332	-0.277485
C	 1.7638577874	-1.2426656171	-0.3126436747	-0.047903
C	 1.1362571228	-0.5564475096	 0.891611231	 0.08897
O	 2.0263762638	 0.3092508126	 1.5679083116	-0.426161
H	 0.8230287181	 2.1092471635	-0.2234406698	 0.126848
H	-0.8207691199	 1.9067418748	-0.8500794481	 0.11375
H	-0.5369502009	 1.9553803246	 0.8926703913	 0.10099
H	-0.9284017794	-0.3894450159	 0.1617651015	 0.066471
H	 0.1921176471	-1.0773572004	-2.0648227907	 0.080831
H	 2.6867529068	-0.6286930146	-2.2023173687	 0.107768
H	 2.5113607528	 0.7557634377	-1.0311081193	 0.122036
H	 2.1638571944	-2.2489653007	-0.3156371617	 0.081762
H	 0.6882761405	-1.2761899158	 1.589234401	 0.063831
H	 1.5488092672	 0.7234345089	 2.2938454446	 0.281644
145.6858	162.6907	217.6224	279.5081	291.5294	416.0756	546.3769	558.5711	681.4964	768.5557	798.2313	807.4479	910.0805	932.3599	966.6655	994.1714	1022.9713	1041.717	1065.8625	1082.0578	1096.18	1136.7501	1151.2722	1176.3747	1225.1625	1253.1612	1281.3745	1332.0248	1366.908	1367.9008	1409.8896	1424.2552	1487.1801	1492.766	1502.0295	3006.5069	3027.879	3046.8751	3086.0963	3118.51	3131.3826	3176.4549	3188.1856	3213.6247	3814.7996
CC1C2CC2C1O	C[C@H]1[C@H]2C[C@H]2[C@H]1O	
InChI=1S/C6H10O/c1-3-4-2-5(4)6(3)7/h3-7H,2H2,1H3	InChI=1S/C6H10O/c1-3-4-2-5(4)6(3)7/h3-7H,2H2,1H3/t3-,4+,5+,6-/m0/s1
