19
gdb 1300	6.92163	1.06106	0.96842	0.4474	65.05	-0.2482	0.0717	0.3199	1230.4102	0.169192	-348.045948	-348.036728	-348.035784	-348.079973	31.914	
C	 0.0229396425	 1.3752548764	-0.0324025406	-0.226521
O	 0.0331482011	-0.0304973219	-0.0092906968	-0.233073
C	 0.6623624159	-0.5534500391	 1.1420152557	-0.04937
C	 0.6372218123	-2.0736258823	 1.0576245118	-0.209418
C	 1.3280559693	-2.7506930287	 2.246764815	 0.135024
C	 1.2373934911	-4.2750990191	 2.1764381123	-0.40091
O	 2.6833006843	-2.3202502418	 2.3810940576	-0.429459
H	 1.042493997	 1.7932647031	-0.0172661224	 0.101701
H	-0.4718649304	 1.6860615584	-0.9561184019	 0.123603
H	-0.5286088706	 1.7960583285	 0.8240424595	 0.101172
H	 1.7009328906	-0.1963541973	 1.2166686332	 0.096687
H	 0.139301322	-0.2127996356	 2.0535043669	 0.080417
H	-0.4034258654	-2.4125917584	 0.9936457327	 0.104445
H	 1.1252764042	-2.385518901	 0.1237279446	 0.09351
H	 0.849959351	-2.4103942874	 3.174590876	 0.088838
H	 0.195884211	-4.6122656633	 2.1842470991	 0.117194
H	 1.7006934367	-4.6487723815	 1.2544900852	 0.106769
H	 1.7566726096	-4.7249525076	 3.0268738836	 0.123538
H	 3.1643416477	-2.6352928816	 1.6072916986	 0.275853
70.826	77.8631	133.844	144.8747	232.9309	246.5133	289.2061	308.113	318.4801	442.042	490.704	508.4096	801.926	852.3036	941.6597	975.5293	987.2084	1051.6564	1089.805	1121.0598	1154.3315	1172.3976	1182.3926	1225.2689	1229.7329	1293.8516	1298.8926	1334.3275	1378.9735	1404.3064	1418.4816	1428.6065	1481.1094	1482.032	1485.2025	1493.7351	1496.3716	1506.1999	1534.3864	2945.7499	2966.3012	3001.7372	3007.0489	3015.7183	3023.5671	3033.0301	3070.2342	3095.4632	3109.7268	3119.4129	3793.0844
COCCC(C)O	COCC[C@@H](C)O	
InChI=1S/C5H12O2/c1-5(6)3-4-7-2/h5-6H,3-4H2,1-2H3	InChI=1S/C5H12O2/c1-5(6)3-4-7-2/h5-6H,3-4H2,1-2H3/t5-/m1/s1
