12
gdb 3673	7.83458	2.03311	1.63058	1.9537	52.61	-0.247	0.0004	0.2474	716.0947	0.090286	-360.520081	-360.513792	-360.512848	-360.550356	22.655	
C	 0.0570388855	 1.4905619364	 0.044367755	-0.488864
C	-0.0922720416	 0.0128915616	-0.0346766499	 0.460345
C	-1.1243861174	-0.8345870578	 0.2209715958	-0.433792
C	-0.5698201183	-2.112116168	-0.0646352915	 0.473909
O	-1.2216067868	-3.2803052462	 0.0428098017	-0.417874
N	 0.6793249359	-2.0492351823	-0.4566521347	-0.260522
O	 0.9876160269	-0.6821679408	-0.437691512	-0.216321
H	 0.8520252546	 1.7654954606	 0.7451325627	 0.152622
H	 0.3201654436	 1.9086609699	-0.9326634142	 0.152629
H	-0.8761011673	 1.9470281348	 0.3791610684	 0.14266
H	-2.1199000569	-0.6024356798	 0.55761612	 0.123656
H	-0.6068174481	-3.9813302884	-0.2126843113	 0.311553
82.6319	193.9451	287.0195	376.9128	450.049	457.4264	602.7045	627.01	721.9124	760.9775	797.4054	936.96	1001.8705	1026.6935	1050.3823	1064.7626	1162.5704	1231.0214	1316.3674	1411.9515	1472.8608	1482.8553	1541.5048	1557.93	1664.3114	3044.132	3101.3308	3140.4154	3287.4796	3777.7602
CC1=CC(O)=NO1	Cc1cc(O)no1	
InChI=1S/C4H5NO2/c1-3-2-4(6)5-7-3/h2H,1H3,(H,5,6)	InChI=1S/C4H5NO2/c1-3-2-4(6)5-7-3/h2H,1H3,(H,5,6)
