13
gdb 4730	7.10397	1.29163	1.09443	2.1867	73.46	-0.1972	-0.0158	0.1814	1012.0052	0.095583	-361.451949	-361.444707	-361.443763	-361.483126	27.423	
N	-0.037344139	 1.4379876002	 0.1548343014	-0.610827
C	 0.004303709	 0.0431138731	 0.0413666518	 0.25455
C	-1.0406612974	-0.8386615626	-0.0005965924	-0.105868
O	-0.5868350156	-2.1239396864	-0.0248356801	-0.179342
C	 0.7749823178	-2.0662340622	-0.0061851425	 0.256725
C	 1.1864426485	-0.7604042069	 0.0379756178	-0.374203
C	 1.4905913163	-3.2757981965	-0.0310077586	 0.249253
C	 2.1156681656	-4.3055343701	-0.052626407	-0.416441
H	 0.7189262566	 1.8938128004	-0.3385796141	 0.248013
H	-0.9187298341	 1.8353469056	-0.1423605739	 0.245569
H	-2.1107107239	-0.7157575906	-0.0085738603	 0.125439
H	 2.209221742	-0.4190259203	 0.0702459722	 0.113504
H	 2.6655153541	-5.213609764	-0.0705928142	 0.193629
133.0663	149.6215	215.2231	319.6133	357.909	458.4823	532.7974	540.3958	548.2334	617.6712	676.7601	685.7817	692.8391	713.9769	749.442	815.8937	962.1217	1006.1834	1107.3356	1162.5627	1179.301	1252.6095	1326.8807	1448.9381	1541.2599	1645.8697	1669.0872	2229.9612	3259.5267	3278.5496	3503.6777	3542.6708	3632.0608
NC1=COC(=C1)C#C	Nc1coc(c1)C#C	
InChI=1S/C6H5NO/c1-2-6-3-5(7)4-8-6/h1,3-4H,7H2	InChI=1S/C6H5NO/c1-2-6-3-5(7)4-8-6/h1,3-4H,7H2
