12
gdb 1418	4.43147	1.73713	1.31906	4.1997	52.59	-0.3	-0.0218	0.2782	852.8656	0.088119	-360.542928	-360.535412	-360.534468	-360.575597	24.694	
C	 0.0554829738	 1.7388789378	 0.2017957044	-0.39393
C	-0.0107817782	 0.236918593	-0.0638370043	-0.032364
O	 0.584855595	-0.0134107877	-1.3430273466	-0.178476
C	 0.0995849035	-1.0523573148	-2.0703317606	 0.181068
O	 0.5429072424	-1.3392518023	-3.1363611879	-0.250463
C	 0.6943535409	-0.5351489413	 0.9755675866	 0.283986
N	 1.23357108	-1.1388685607	 1.799299236	-0.29966
H	 1.093369364	 2.0773954619	 0.1924459442	 0.161801
H	-0.4984794903	 2.2659209782	-0.5779404943	 0.146081
H	-0.3844928548	 1.9686041959	 1.1750220508	 0.148707
H	-1.0570008759	-0.0964728168	-0.0733567302	 0.138752
H	-0.7395860303	-1.5737891433	-1.5714986681	 0.094499
36.0441	129.6829	187.8772	222.1619	225.6109	300.416	410.9396	517.5005	576.8792	668.4263	838.1314	949.4916	1038.0554	1055.9644	1108.6455	1124.8908	1185.8652	1331.1892	1360.3965	1411.309	1436.1717	1482.2036	1494.2794	1882.2443	2363.7854	2959.4923	3027.6374	3060.831	3143.5292	3150.07
CC(OC=O)C#N	C[C@@H](OC=O)C#N	
InChI=1S/C4H5NO2/c1-4(2-5)7-3-6/h3-4H,1H3	InChI=1S/C4H5NO2/c1-4(2-5)7-3-6/h3-4H,1H3/t4-/m1/s1
