16
gdb 1181	3.92107	1.945	1.83615	4.7434	61.07	-0.2748	0.0267	0.3015	790.4069	0.134047	-325.781398	-325.772892	-325.771948	-325.814076	29.887	
C	-0.06957423	 1.3960364631	 0.1079152268	-0.247654
O	 0.0158275989	-0.0102209556	-0.0199070702	-0.269575
C	 0.6740487613	-0.5190048666	-1.1785574153	 0.213888
C	-0.0574376576	-0.1400921602	-2.4812806054	-0.418435
C	 2.1615276894	-0.1184317793	-1.2304167699	-0.418467
C	 0.5946111325	-1.9889813332	-1.0120985221	 0.284793
N	 0.5553295181	-3.1395274854	-0.9223861664	-0.336354
H	 0.9160168999	 1.8758806083	 0.1689868836	 0.114513
H	-0.6395090805	 1.8610255317	-0.7071621032	 0.114511
H	-0.5994312582	 1.5765401361	 1.0455873865	 0.141939
H	 0.0443990926	 0.9297553667	-2.6799749648	 0.125267
H	 0.3712094385	-0.6833755683	-3.3269924056	 0.140444
H	-1.1177915824	-0.3909267082	-2.4046122401	 0.144698
H	 2.6483959868	-0.3537522194	-0.2813454178	 0.144698
H	 2.6712604999	-0.6613402886	-2.030132792	 0.140462
H	 2.2630398907	 0.9513024688	-1.4298640841	 0.125272
49.2915	167.8156	185.9901	191.601	261.5253	265.6931	313.1856	358.3917	397.1918	458.1562	570.8278	585.0483	702.3801	850.9714	921.7726	953.9946	1014.967	1105.1328	1175.6537	1182.754	1190.7193	1215.3543	1273.685	1390.4975	1410.1648	1475.9207	1476.507	1478.7916	1498.1867	1501.5619	1505.0144	1513.804	2365.94	3003.8177	3049.4596	3055.8492	3060.7325	3123.8949	3126.8907	3132.7666	3138.2151	3139.7553
COC(C)(C)C#N	COC(C)(C)C#N	
InChI=1S/C5H9NO/c1-5(2,4-6)7-3/h1-3H3	InChI=1S/C5H9NO/c1-5(2,4-6)7-3/h1-3H3
