13
gdb 2734	4.55073	2.22938	1.61075	2.7153	60.91	-0.2413	-0.0269	0.2144	745.5822	0.100042	-307.290176	-307.283364	-307.28242	-307.321128	24.766	
O	-0.0424378159	-0.0161325509	 0.0271613076	-0.274698
C	-0.0531321981	 1.1745583903	 0.0617554503	 0.397435
C	-1.1455141844	 2.2413439576	 0.2233828731	-0.341286
C	-0.0287985463	 3.2672378833	 0.572089453	-0.238375
C	 1.072507206	 2.260939672	 0.0810378069	-0.281183
C	 2.253271691	 2.0334080941	 0.878842533	 0.311541
C	 3.2160835205	 1.8306547738	 1.5698181581	-0.430233
H	-1.6505762911	 2.4445494505	-0.7267507481	 0.137669
H	-1.9041188015	 2.0287980667	 0.9798549147	 0.138578
H	-0.0586017305	 4.2202239405	 0.0444253054	 0.117913
H	 0.0505912792	 3.4497063567	 1.644304491	 0.130045
H	 1.3433238266	 2.4756872891	-0.9613587664	 0.132397
H	 4.0708791145	 1.6495684463	 2.1731231015	 0.200197
83.8142	127.6713	201.5957	368.5931	419.0856	482.3584	575.7367	616.4762	638.8384	659.3296	708.2587	768.9678	898.6219	932.7843	1008.8116	1031.3338	1066.3699	1085.6013	1194.7609	1209.2532	1230.2306	1256.8269	1315.1405	1441.6575	1492.6488	1905.564	2236.3379	3025.3282	3060.4265	3093.4245	3119.375	3153.2224	3504.7957
O=C1CCC1C#C	O=C1CC[C@H]1C#C	
InChI=1S/C6H6O/c1-2-5-3-4-6(5)7/h1,5H,3-4H2	InChI=1S/C6H6O/c1-2-5-3-4-6(5)7/h1,5H,3-4H2/t5-/m1/s1
