11
gdb 13	29.45018	8.37701	7.42076	0.0597	34.75	-0.323	0.0949	0.4179	227.1361	0.103182	-119.052475	-119.047927	-119.046983	-119.078157	14.84	
C	-0.0311382511	 1.5408158176	 0.0319212557	-0.357354
C	 0.0121534673	 0.0109223512	-0.016032589	-0.143977
C	 0.7216912862	-0.5258335257	-1.2623057014	-0.357354
H	 0.9795598736	 1.9645911645	 0.0309836688	 0.112011
H	-0.558402225	 1.9483119221	-0.8381607489	 0.112009
H	-0.5425225229	 1.9015353142	 0.9300567072	 0.109753
H	 0.5152279134	-0.3684023366	 0.882311343	 0.095569
H	-1.0107064136	-0.3845699872	 0.0205178255	 0.095569
H	 1.7585121046	-0.1737658496	-1.3087151642	 0.112009
H	 0.7408719199	-1.6202495858	-1.2751651128	 0.109753
H	 0.2202335076	-0.1905117949	-2.1772902038	 0.112011
218.9418	268.384	362.1381	750.9108	875.0581	909.6321	929.1072	1061.1879	1177.1909	1216.4499	1317.5778	1368.7204	1403.2941	1421.8225	1489.5601	1489.763	1498.279	1507.9224	1514.825	3022.64	3025.5367	3029.3334	3047.7738	3087.9147	3098.1307	3098.768	3100.85
CCC	CCC	
InChI=1S/C3H8/c1-3-2/h3H2,1-2H3	InChI=1S/C3H8/c1-3-2/h3H2,1-2H3
