17
gdb 2479	5.26211	2.42382	2.25128	0.2766	69.38	-0.2118	0.0258	0.2377	683.3655	0.150181	-272.55735	-272.551311	-272.550367	-272.586818	24.313	
C	-0.0462490195	 1.4576760793	 0.0474091432	-0.5183
C	-0.0082045507	-0.0298972755	-0.0062194242	 0.357248
C	-0.0449439639	-0.8893669473	-1.0307325515	-0.19469
C	 0.0333696022	-2.2661563427	-0.3539235483	-0.056495
C	-0.9710075788	-2.0529609276	 0.8305376366	-0.202966
C	 0.0901865159	-0.9655754545	 1.2167483718	-0.107774
C	 1.1569948837	-1.9938421698	 0.7045999235	-0.202973
H	 0.852230317	 1.8657707087	 0.5288181858	 0.124556
H	-0.1189767401	 1.8911961004	-0.9543589696	 0.123194
H	-0.9011929683	 1.8170886714	 0.6351354603	 0.124529
H	-0.1132153022	-0.6949364956	-2.0922463264	 0.089891
H	 0.0212236572	-3.1592772896	-0.9783661916	 0.055936
H	-1.9778005474	-1.7090365804	 0.580949133	 0.088702
H	-1.0070339683	-2.8933336969	 1.5318661975	 0.088244
H	 0.1364695283	-0.5163806543	 2.2097025479	 0.053954
H	 1.321874735	-2.828634148	 1.3940365239	 0.088245
H	 2.10677523	-1.5955584175	 0.3392240281	 0.0887
180.3512	191.6526	298.2987	494.0017	508.2984	575.9103	607.8663	778.6758	790.1352	830.1174	838.228	857.7971	885.0074	934.2171	994.1838	1000.7966	1011.5359	1060.4562	1068.4409	1079.2501	1110.2757	1111.0657	1193.4901	1224.9828	1228.9188	1236.8248	1246.6781	1273.7918	1322.1497	1413.0325	1477.3504	1479.0067	1487.0957	1516.1745	1693.193	3010.4975	3037.536	3047.3677	3053.4018	3102.8391	3106.21	3109.127	3114.2514	3117.3275	3223.9071
CC1=CC2CC1C2	CC1=C[C@@H]2C[C@H]1C2	
InChI=1S/C7H10/c1-5-2-6-3-7(5)4-6/h2,6-7H,3-4H2,1H3	InChI=1S/C7H10/c1-5-2-6-3-7(5)4-6/h2,6-7H,3-4H2,1H3/t6-,7+
