16
gdb 798	4.37128	1.2263	0.96903	0.	71.35	-0.2278	-0.0326	0.1952	1148.5611	0.127289	-416.988831	-416.979509	-416.978565	-417.023066	32.871	
C	 0.0003253853	 1.5179412864	-0.0050597087	-0.487918
C	 0.0531580176	 0.0146614918	-0.0077306712	 0.312742
N	 0.1897171891	-0.6884083321	 1.0614106654	-0.178747
O	 0.2798663743	 0.1157980933	 2.1963406451	-0.38622
C	-0.0511619138	-0.7505101856	-1.264629432	 0.312751
C	 0.0016760809	-2.2537852263	-1.2673369032	-0.487916
N	-0.1877413473	-0.0474230628	-2.3337605155	-0.178745
O	-0.2779059111	-0.8516367107	-3.4686930841	-0.386226
H	 0.9149367842	 1.9205834567	 0.4412010155	 0.142701
H	-0.1185956263	 1.9042181197	-1.0145359411	 0.145304
H	-0.8285533442	 1.8590024752	 0.6229773526	 0.142701
H	 0.3765271343	-0.5338667552	 2.9010785035	 0.309432
H	-0.9130546687	-2.6564313249	-1.7133650285	 0.142703
H	 0.8303475108	-2.5947939331	-1.8956751172	 0.142704
H	 0.1208973731	-2.6401021599	-0.2579158198	 0.145302
H	-0.3745522982	-0.2019729527	-4.1734352808	 0.309432
71.523	90.699	92.3053	187.9249	210.3657	303.9432	332.1947	347.9441	415.3484	436.3082	457.3349	472.6188	539.5859	610.2685	694.5491	781.4654	947.8219	995.4259	1025.5677	1047.8401	1060.9078	1078.5466	1137.3511	1328.4905	1381.4567	1397.5377	1398.0652	1420.7991	1476.649	1484.7122	1485.4813	1492.0342	1681.0702	1688.3095	3051.7518	3051.8201	3103.7244	3103.7782	3180.2591	3180.3381	3813.9491	3815.3974
CC(=NO)C(C)=NO	CC(=NO)C(=NO)C	
InChI=1S/C4H8N2O2/c1-3(5-7)4(2)6-8/h7-8H,1-2H3	InChI=1S/C4H8N2O2/c1-3(5-7)4(2)6-8/h7-8H,1-2H3
