13
gdb 1409	5.05361	1.6726	1.3306	1.8451	55.96	-0.2675	-0.0428	0.2247	851.8114	0.098926	-344.426062	-344.418527	-344.417582	-344.457887	26.591	
O	 0.860035982	 1.7220642856	 0.6306639746	-0.427441
C	 0.1638321642	 0.7295738821	-0.0629643238	 0.050801
C	 0.74726049	 0.574502672	-1.4940440993	-0.372896
C	-0.024958923	-0.3295917368	-2.3346295523	 0.289936
C	-0.6877282304	-1.0781759312	-3.0019507212	-0.445535
C	 0.2211786008	-0.5837346903	 0.695283076	 0.137754
O	 0.7869449659	-0.6649024517	 1.7596357953	-0.261081
H	 1.1793670008	 1.2965213839	 1.4433735751	 0.296292
H	-0.9032513149	 0.992812189	-0.1668367032	 0.109594
H	 0.7737720585	 1.5770815322	-1.9343188594	 0.15581
H	 1.7888576675	 0.2409049787	-1.4153706746	 0.143649
H	-1.2617201739	-1.7367523416	-3.6059039929	 0.203868
H	-0.2755183576	-1.4516983519	 0.2232751056	 0.119249
82.3167	131.955	141.9659	303.566	337.447	355.5101	402.1009	487.96	505.0719	634.9511	660.3573	732.015	830.2206	879.7097	971.3818	1021.864	1070.3636	1154.3096	1191.2509	1280.686	1305.367	1350.8385	1390.9261	1445.2356	1473.8866	1809.96	2238.4448	2958.7805	2976.6922	3039.2203	3079.4741	3504.0719	3675.4029
OC(CC#C)C=O	O[C@@H](CC#C)C=O	
InChI=1S/C5H6O2/c1-2-3-5(7)4-6/h1,4-5,7H,3H2	InChI=1S/C5H6O2/c1-2-3-5(7)4-6/h1,4-5,7H,3H2/t5-/m0/s1
