11
gdb 4418	3.9248	2.06437	1.35282	4.5991	57.19	-0.2507	-0.0655	0.1852	806.1477	0.072646	-434.60183	-434.595533	-434.594589	-434.632442	23.235	
O	 0.0214454939	 1.3300090873	 0.0077079421	-0.37969
C	-0.0421863756	 0.00492508	 0.0010607191	 0.518106
C	-1.2286098566	-0.6821140591	 0.0040236386	-0.309849
C	-1.1051341001	-2.080491856	-0.0040743019	 0.054556
N	 0.0175843462	-2.7650366239	-0.0139305232	-0.341904
C	 1.2013203639	-2.1153198116	-0.016968178	 0.457473
O	 2.3163910183	-2.5214150281	-0.0254713979	-0.309372
O	 1.1161249851	-0.603785414	-0.0085628197	-0.276303
H	 0.9554158024	 1.5872171781	 0.003881885	 0.321728
H	-2.1773640993	-0.1692252614	 0.0119903306	 0.128906
H	-2.0141710481	-2.6807635313	-0.0022458548	 0.136349
117.5988	187.9833	295.7452	436.5019	460.6461	515.0059	538.2893	560.8878	660.923	734.3246	786.269	794.0416	845.0728	949.1175	1022.051	1061.84	1108.0411	1214.1879	1359.4057	1420.6633	1464.023	1568.6316	1696.4774	1925.1777	3144.5753	3258.9247	3761.4624
OC1=CC=NC(=O)O1	Oc1ccnc(=O)o1	
InChI=1S/C4H3NO3/c6-3-1-2-5-4(7)8-3/h1-2,6H	InChI=1S/C4H3NO3/c6-3-1-2-5-4(7)8-3/h1-2,6H
