18
gdb 1678	3.73261	2.12277	1.52532	3.4689	65.39	-0.2314	0.0367	0.2681	865.2535	0.158517	-327.013853	-327.004948	-327.004004	-327.047524	30.639	
C	-0.2116441934	 1.6605020805	-0.0985745394	-0.377333
C	 0.0628130182	 0.1565353114	-0.0090200092	-0.146033
N	-1.1538225604	-0.6540395753	-0.065644058	-0.067867
C	-1.6135229611	-1.0416202492	-1.3843586083	-0.341981
C	-1.7989759829	-0.9272895637	 1.1139001785	 0.402163
C	-3.0607786962	-1.7796291668	 1.0557633764	-0.499069
O	-1.3756707147	-0.5081804079	 2.1805721203	-0.38297
H	 0.7288780145	 2.2205625256	-0.0866176568	 0.115563
H	-0.7449815497	 1.9207841059	-1.0190276151	 0.110504
H	-0.8134385371	 1.9806454274	 0.7555157756	 0.144033
H	 0.7144253689	-0.1651137351	-0.829686359	 0.093915
H	 0.5622581594	-0.0700230616	 0.9343447291	 0.139107
H	-2.5597112802	-1.5761792632	-1.3285770193	 0.138332
H	-1.7641201404	-0.1616841278	-2.0231844311	 0.127672
H	-0.8815382833	-1.6929306872	-1.8807575888	 0.125843
H	-2.8838516956	-2.7506468157	 0.583158301	 0.134304
H	-3.3875119634	-1.9369275929	 2.0830140752	 0.147572
H	-3.8632510325	-1.2795205244	 0.5037973489	 0.136245
62.2747	79.3108	111.6552	156.2708	214.2433	229.4692	323.4687	392.6573	407.7135	488.2222	588.6335	604.3483	720.6629	786.2931	906.522	996.7891	1037.5962	1048.8212	1093.7341	1106.8266	1154.6806	1195.146	1262.299	1333.7476	1385.0353	1392.706	1408.1188	1439.8105	1461.7196	1475.2695	1478.5482	1489.9911	1495.9685	1500.0325	1506.1325	1531.1606	1750.5046	3007.1885	3037.5122	3039.7231	3043.7925	3048.6108	3098.8971	3106.8464	3120.69	3132.4571	3160.2083	3168.438
CCN(C)C(C)=O	CCN(C)C(=O)C	
InChI=1S/C5H11NO/c1-4-6(3)5(2)7/h4H2,1-3H3	InChI=1S/C5H11NO/c1-4-6(3)5(2)7/h4H2,1-3H3
