14
gdb 472	5.60949	3.62344	2.87618	1.5931	49.05	-0.2428	0.0712	0.314	508.516	0.120836	-307.56626	-307.560326	-307.559382	-307.595858	21.242	
O	-0.2265239148	 1.4481785423	-0.2236802253	-0.437851
C	-0.0119991695	 0.0568401422	-0.0146022203	 0.100378
C	-1.3858550964	-0.6161112007	-0.0666948378	-0.222953
C	-1.5855042707	-0.7703373699	-1.5761137426	-0.059191
O	-0.2930652728	-1.0779163644	-2.0994153896	-0.261242
C	 0.707238929	-0.6143327544	-1.1985682272	-0.076083
H	 0.6276676511	 1.8658997795	-0.3714679143	 0.282778
H	 0.5156234672	-0.118342352	 0.9329981309	 0.066628
H	-1.3422686746	-1.5952189503	 0.4204377098	 0.104748
H	-2.1503092149	-0.0079536036	 0.4201920734	 0.115341
H	-2.2649371615	-1.5831033391	-1.8496092125	 0.102554
H	-1.9620779403	 0.1653876989	-2.0122657991	 0.103572
H	 1.3735208826	 0.0965447988	-1.7082032265	 0.086479
H	 1.3155432557	-1.4664422171	-0.863229809	 0.094841
78.3818	196.9494	286.5646	396.503	415.0215	655.687	763.6555	855.241	865.8108	920.6132	929.3672	981.0522	1008.8443	1040.057	1116.0742	1148.9774	1184.6727	1199.9268	1251.4807	1258.7452	1327.2508	1345.7955	1365.2973	1388.9441	1425.4616	1475.7438	1509.8486	1524.9857	2989.0529	3005.9745	3010.8526	3026.0031	3061.4659	3082.4783	3128.2705	3819.9246
OC1CCOC1	O[C@H]1CCOC1	
InChI=1S/C4H8O2/c5-4-1-2-6-3-4/h4-5H,1-3H2	InChI=1S/C4H8O2/c5-4-1-2-6-3-4/h4-5H,1-3H2/t4-/m0/s1
