16
gdb 2322	6.54487	1.38143	1.26001	3.0117	61.99	-0.2392	-0.0224	0.2168	953.4127	0.134679	-325.75097	-325.743159	-325.742215	-325.783639	27.126	
C	-0.0081603611	 1.581473803	-0.243723493	-0.412331
C	-0.0285475811	 0.0889594018	 0.0032479878	 0.035173
C	 1.2069299888	-0.7368926124	-0.1180903462	-0.256231
N	 0.5741300359	-0.5335589795	 1.1847239056	-0.094758
C	 1.2733295243	 0.2808405715	 2.1629138676	-0.231251
C	 2.0060752448	-0.6167443477	 3.1499959617	 0.160413
O	 2.9878746068	-0.2865913614	 3.7614111739	-0.239735
H	 0.9708594397	 2.0245882964	-0.0463327375	 0.123525
H	-0.2597373774	 1.786456598	-1.2894366138	 0.127417
H	-0.7480255028	 2.0962234231	 0.3793139372	 0.125669
H	-0.9706837714	-0.384949524	-0.2701269085	 0.095011
H	 1.1729704082	-1.7485117956	-0.5135564174	 0.118953
H	 2.136365041	-0.2034089089	-0.3165722029	 0.11239
H	 1.994102277	 1.0068127437	 1.7591931793	 0.114099
H	 0.5310829413	 0.8471392733	 2.7452730448	 0.132193
H	 1.5381094261	-1.6186334411	 3.2717509714	 0.089463
60.2339	80.2324	145.2973	199.9951	275.2233	339.8905	422.1994	493.3537	523.4899	720.8692	774.1128	829.6024	903.6904	952.8367	1031.429	1047.768	1058.2386	1112.6893	1122.0417	1151.6867	1174.4953	1190.8617	1255.6491	1330.7784	1340.6403	1401.6939	1405.8066	1424.2891	1455.8362	1491.431	1500.7788	1512.6129	1839.0196	2896.4449	2988.7533	3032.7063	3037.6319	3088.3899	3096.0375	3103.6524	3127.3829	3177.4432
CC1CN1CC=O	C[C@H]1CN1CC=O	
InChI=1S/C5H9NO/c1-5-4-6(5)2-3-7/h3,5H,2,4H2,1H3	InChI=1S/C5H9NO/c1-5-4-6(5)2-3-7/h3,5H,2,4H2,1H3/t5-,6?/m0/s1
