14
gdb 3726	6.97654	1.88583	1.6273	2.8569	58.67	-0.2611	-0.0058	0.2552	767.4371	0.114278	-324.579943	-324.573481	-324.572537	-324.610824	23.126	
C	 0.2928509673	 1.4367572173	 0.2942193701	-0.376141
C	-0.2286241118	 0.078236192	-0.2010845505	-0.291321
C	 0.5928926389	-0.4892132305	-1.3194108405	 0.390706
N	 0.0728824568	-0.6274413919	-2.5171494458	-0.200007
O	 1.0832325187	-1.1604693696	-3.3169086769	-0.163861
C	 2.1815328992	-1.3255402548	-2.5681637949	 0.08551
C	 1.9537968823	-0.924174749	-1.2941066311	-0.328475
H	 1.3208426638	 1.3605049871	 0.6625086222	 0.119244
H	 0.2798373286	 2.176062548	-0.5118945233	 0.132449
H	-0.329662685	 1.8116303661	 1.1118313372	 0.119966
H	-0.2390493739	-0.6355455261	 0.6315371872	 0.114902
H	-1.2594781685	 0.1751954308	-0.5532519881	 0.129705
H	 3.0395866339	-1.7380480814	-3.0765168646	 0.149225
H	 2.6369281098	-0.935491478	-0.4611854411	 0.118098
56.3499	164.8499	208.1143	340.4667	401.4708	614.6683	634.8075	725.017	793.0646	800.8873	871.3309	904.6709	937.2369	966.6722	1006.2785	1068.3523	1089.7317	1101.858	1160.8538	1275.5829	1297.667	1356.8701	1409.8913	1449.7071	1480.8427	1483.7224	1497.8767	1509.1349	1611.6431	3037.1657	3040.4716	3090.127	3113.2445	3118.9122	3258.7447	3283.7987
CCC1=NOC=C1	CCc1nocc1	
InChI=1S/C5H7NO/c1-2-5-3-4-7-6-5/h3-4H,2H2,1H3	InChI=1S/C5H7NO/c1-2-5-3-4-7-6-5/h3-4H,2H2,1H3
