16
gdb 592	11.38234	1.74877	1.65851	0.9417	57.75	-0.2495	0.0923	0.3419	774.9385	0.142346	-271.606364	-271.599345	-271.598401	-271.637363	24.416	
C	-0.1322833944	 1.3366743742	-0.0940626569	-0.223938
O	-0.1616244789	-0.066059308	-0.179950795	-0.229551
C	 0.8303176665	-0.5815189515	-1.0447868129	-0.063258
C	 0.7602187983	-2.0832761313	-1.0391293637	 0.013674
C	-0.2332892788	-2.7935207322	-1.9202501408	-0.246095
C	 1.2381580134	-2.8540766844	-2.2441893609	-0.272797
H	 0.8340538832	 1.7058995464	 0.2868115732	 0.100324
H	-0.3149481076	 1.8125463857	-1.0715669547	 0.099709
H	-0.9221506978	 1.6407852188	 0.5973518361	 0.125074
H	 0.6808421349	-0.2007002217	-2.0713352577	 0.076469
H	 1.8290336201	-0.2395850981	-0.7198037515	 0.082842
H	 0.9519429951	-2.5294707081	-0.0677205664	 0.089289
H	-0.7148414715	-3.685246873	-1.5352978526	 0.112361
H	-0.8689420535	-2.1840054101	-2.55384023	 0.113379
H	 1.5930128831	-2.2897920672	-3.100708696	 0.110136
H	 1.7689262479	-3.7848044595	-2.0787623901	 0.112381
84.7568	99.738	178.4598	230.1614	330.9512	395.8189	461.9168	774.0796	816.0814	845.7444	920.7098	941.5744	1005.9267	1037.2791	1060.6618	1079.488	1132.8819	1156.2613	1177.1327	1195.6767	1203.8859	1224.1577	1234.2506	1280.7292	1375.8029	1440.8513	1469.8604	1480.7831	1484.2935	1501.425	1507.7875	1525.2797	2935.1988	2961.9606	2963.8045	3002.8661	3110.7959	3130.8032	3136.2299	3153.1676	3209.0135	3224.4358
COCC1CC1	COCC1CC1	
InChI=1S/C5H10O/c1-6-4-5-2-3-5/h5H,2-4H2,1H3	InChI=1S/C5H10O/c1-6-4-5-2-3-5/h5H,2-4H2,1H3
