14
gdb 1433	7.91069	1.19122	1.04896	3.9779	65.82	-0.2485	-0.0131	0.2354	1103.556	0.111591	-324.584824	-324.576046	-324.575102	-324.620157	28.038	
C	 0.0311428159	 1.4429833558	-0.0605745329	-0.338289
N	-0.0832360395	-0.0004564986	-0.0946196748	-0.309332
C	-1.2467490401	-0.6531831988	 0.2029139657	 0.259959
O	-2.2805230911	-0.0902515447	 0.5197835585	-0.360635
C	-1.1359405941	-2.1009493266	 0.1052323611	-0.029007
C	-1.0963814729	-3.3037775735	 0.0388212188	 0.127957
C	-1.061059112	-4.754925372	-0.0377605832	-0.504269
H	 0.7823187625	 1.7668443564	 0.668702495	 0.126684
H	 0.3008684998	 1.8453986371	-1.0436014034	 0.126678
H	-0.942121388	 1.8388021654	 0.2311968128	 0.173619
H	 0.7160776903	-0.5585092427	-0.345192497	 0.251648
H	-2.0361556632	-5.1868117816	 0.2104297359	 0.161768
H	-0.7911014352	-5.0892294017	-1.0453776408	 0.156574
H	-0.3228130224	-5.1676050144	 0.6583915143	 0.156645
14.6868	74.3177	94.4187	94.9025	189.7513	282.691	338.5798	379.0524	462.092	482.8618	580.8243	761.969	820.1403	993.6756	1049.7522	1052.3394	1141.5389	1151.8032	1172.5514	1260.8599	1411.6001	1438.5553	1472.5295	1475.3347	1490.1156	1499.0107	1555.9767	1756.1617	2355.542	3025.5929	3031.0429	3076.6124	3093.3033	3097.7297	3154.9374	3649.9546
CNC(=O)C#CC	CNC(=O)C#CC	
InChI=1S/C5H7NO/c1-3-4-5(7)6-2/h1-2H3,(H,6,7)	InChI=1S/C5H7NO/c1-3-4-5(7)6-2/h1-2H3,(H,6,7)
