13
gdb 1426	7.64386	1.31224	1.17848	1.7229	52.54	-0.2569	-0.0521	0.2048	928.2898	0.0986	-381.602419	-381.594748	-381.593803	-381.635231	25.572	
O	-0.2029893693	 1.4132046453	 0.1159676943	-0.431177
C	 0.0237688653	 0.0384932372	-0.0177558974	 0.03821
C	 0.8416730516	-0.2710758758	-1.2938995071	-0.29799
C	 0.1153897098	 0.2017643609	-2.5396999921	 0.155794
O	-0.1390889464	-0.5091240624	-3.4770946309	-0.23371
C	 0.7517781087	-0.499995801	 1.1996755179	 0.139501
O	 1.0805907928	 0.2259151409	 2.1056393258	-0.253217
H	 0.1869718198	 1.6617656944	 0.9698965312	 0.298984
H	-0.9354371059	-0.5058121604	-0.0819187885	 0.110942
H	 1.7942572267	 0.2705923665	-1.2234802218	 0.133835
H	 1.0415207427	-1.3422550328	-1.3926054921	 0.122834
H	-0.1736131117	 1.2728100081	-2.5229848369	 0.107888
H	 0.9690924059	-1.586776171	 1.2074060577	 0.108107
55.0838	77.6	114.9595	228.3794	308.7865	351.7254	404.9673	467.8031	516.4704	738.3775	806.0585	861.4499	933.2644	972.0184	1058.2373	1101.6797	1163.5273	1228.4453	1256.4917	1300.0594	1345.4347	1397.2612	1421.4028	1435.1927	1450.9692	1814.0711	1832.3159	2928.6469	2938.382	2957.9751	3029.0155	3103.8029	3680.6916
OC(CC=O)C=O	O[C@@H](CC=O)C=O	
InChI=1S/C4H6O3/c5-2-1-4(7)3-6/h2-4,7H,1H2	InChI=1S/C4H6O3/c5-2-1-4(7)3-6/h2-4,7H,1H2/t4-/m0/s1
