11
gdb 2408	6.98835	2.16774	2.04542	1.4264	47.13	-0.2598	-0.0317	0.2281	615.7009	0.077569	-380.316551	-380.310966	-380.310022	-380.345831	21.045	
O	 0.1502852284	 1.3945555698	-0.0999013476	-0.441111
C	 0.091661334	 0.0114625467	-0.0837276753	 0.201509
C	 0.0428914742	-0.6865183866	 1.3166374368	-0.13753
O	-1.3511947226	-0.1559715449	 1.451239636	-0.327902
C	-1.3251659025	-0.6435150903	 0.0353661954	-0.13753
C	-0.6393058099	-1.8924797821	 0.6328490222	 0.485966
O	-0.6964277668	-3.0763026189	 0.6541081961	-0.299551
H	-0.4732403214	 1.6976347992	 0.5760300603	 0.296314
H	 0.7809705863	-0.3834092167	-0.832980254	 0.114793
H	 0.7026565574	-0.5963120726	 2.1763401017	 0.122521
H	-2.222363761	-0.5043682837	-0.5631235953	 0.122521
157.32	300.1449	309.2827	504.6881	545.8563	569.1448	714.8006	719.455	767.5094	790.7539	832.7639	930.7654	982.1205	1053.0683	1109.7826	1135.8326	1137.0748	1181.9112	1184.4456	1241.745	1313.5688	1446.4849	1945.4265	3105.4052	3159.9295	3164.2587	3745.4306
OC1C2OC1C2=O	O[C@H]1[C@H]2O[C@@H]1C2=O	
InChI=1S/C4H4O3/c5-1-3-2(6)4(1)7-3/h1,3-5H	InChI=1S/C4H4O3/c5-1-3-2(6)4(1)7-3/h1,3-5H/t1-,3+,4-
