17
gdb 1176	3.87909	1.85138	1.72368	4.6215	64.23	-0.2604	0.0314	0.2918	828.7651	0.147352	-305.913756	-305.905222	-305.904277	-305.945951	30.976	
C	-0.083755785	 1.5491096674	 0.1333101294	-0.409526
C	-0.0090693734	 0.0275736714	-0.0143941273	-0.181104
C	 0.7376083122	-0.4674516513	-1.2913474989	 0.078414
C	 0.025327211	-0.0228402812	-2.5838028018	-0.396166
N	 2.1454526901	-0.0499932395	-1.3807381484	-0.520476
C	 0.7305258716	-1.9465593132	-1.243547441	 0.303067
N	 0.7015367434	-3.0996192171	-1.1756993857	-0.341271
H	 0.911745082	 2.0052321497	 0.1368390798	 0.111691
H	-0.6673464054	 2.0142100001	-0.6664622568	 0.126606
H	-0.5629778345	 1.8093624088	 1.0812934732	 0.128028
H	 0.5023274226	-0.4002098306	 0.8560512903	 0.110007
H	-1.0196678552	-0.3969598366	-0.014714586	 0.116451
H	 0.0475755136	 1.0676105977	-2.6660400063	 0.120523
H	 0.5333340976	-0.4429939791	-3.4535918841	 0.14842
H	-1.0176513755	-0.3482147902	-2.5874106036	 0.133777
H	 2.1898911279	 0.9588750606	-1.4868600726	 0.234382
H	 2.6380856369	-0.282519387	-0.5228520004	 0.237176
98.4936	159.8673	185.123	209.9659	265.1518	275.0441	291.1951	363.0168	396.6703	451.5458	569.4351	590.4628	701.288	784.0449	827.7227	903.6465	951.9044	998.8595	1012.5817	1062.7947	1112.295	1171.5645	1216.8638	1302.7902	1334.0017	1374.9658	1409.3315	1412.8024	1478.2063	1488.0648	1497.9624	1506.8281	1507.6253	1653.0166	2357.9622	3032.8701	3040.9975	3052.8016	3069.5318	3108.0121	3114.9102	3126.3576	3144.3229	3489.9064	3577.3815
CCC(C)(N)C#N	CC[C@@](C)(N)C#N	
InChI=1S/C5H10N2/c1-3-5(2,7)4-6/h3,7H2,1-2H3	InChI=1S/C5H10N2/c1-3-5(2,7)4-6/h3,7H2,1-2H3/t5-/m1/s1
