19
gdb 1316	3.15426	2.51068	2.04398	1.2493	67.11	-0.2513	0.076	0.3273	769.6888	0.170399	-310.918831	-310.910861	-310.909916	-310.95008	30.701	
C	-0.6348943131	 1.2787165383	-0.0414396672	-0.423704
C	 0.1315943045	-0.0343274392	-0.0606021786	 0.033112
C	 1.5247849492	-0.1179796891	-0.7433928245	-0.239744
C	 1.9686468921	-1.1101007082	 0.364453585	-0.273987
C	 0.773331982	-0.6119194104	 1.2358868977	 0.40575
C	 1.1830804397	 0.4214651281	 2.2806202593	-0.447647
O	-0.0570879401	-1.6056849378	 1.8121197744	-0.478894
H	-0.0217231367	 2.103315383	 0.3374938882	 0.10907
H	-0.9619594867	 1.55079695	-1.0511088008	 0.113179
H	-1.5293661075	 1.2073060794	 0.5870467873	 0.120795
H	-0.507858469	-0.8290636515	-0.4600669346	 0.08385
H	 1.55586973	-0.4684983914	-1.7771020113	 0.096836
H	 2.0648580398	 0.8325190071	-0.6858282366	 0.096037
H	 1.8071968813	-2.1500914047	 0.0701468067	 0.103745
H	 2.9765169947	-1.0031099325	 0.7755746776	 0.085631
H	 1.7998855605	 1.215727228	 1.8491724598	 0.119063
H	 0.3032616971	 0.8786814965	 2.7431570616	 0.123213
H	 1.7770259382	-0.0561249393	 3.0706386308	 0.103052
H	 0.3512694639	-1.9035841563	 2.6323420252	 0.270642
129.0057	213.3861	243.3672	259.3973	276.48	283.1432	346.434	398.4997	442.5923	505.2367	605.4306	705.8088	789.5145	883.2243	889.5096	896.1672	944.322	953.9507	988.6547	1052.8637	1094.1309	1139.3044	1165.8242	1188.4029	1201.6554	1224.8952	1251.3616	1272.0216	1305.0931	1365.5995	1385.5286	1406.3482	1410.1074	1476.08	1488.9708	1489.1879	1500.3937	1502.2976	1504.8955	3020.8704	3028.1497	3045.9172	3053.2097	3056.4463	3086.6403	3092.4324	3098.0513	3103.3856	3113.4911	3119.8081	3798.8634
CC1CCC1(C)O	C[C@H]1CC[C@]1(C)O	
InChI=1S/C6H12O/c1-5-3-4-6(5,2)7/h5,7H,3-4H2,1-2H3	InChI=1S/C6H12O/c1-5-3-4-6(5,2)7/h5,7H,3-4H2,1-2H3/t5-,6-/m0/s1
