16
gdb 456	6.95584	3.02672	2.23957	0.2336	62.6	-0.2238	0.037	0.2608	609.4914	0.144201	-234.522504	-234.51632	-234.515375	-234.551976	22.921	
C	-0.1787396166	 1.485633611	 0.0535084116	-0.491128
C	-0.0014417047	 0.0014356041	-0.0087370731	 0.346882
C	-0.0908143793	-0.7823048761	-1.0854471762	-0.155896
C	 0.2029854996	-2.2314388562	-0.7826049442	-0.241584
C	 0.1808307814	-2.2737608943	 0.7682209827	-0.201369
C	 0.372007401	-0.8048831256	 1.2202706607	-0.286704
H	 0.7325619332	 1.9790021754	 0.4165656384	 0.121905
H	-0.4239126391	 1.9066854418	-0.9255014427	 0.120276
H	-0.9778969373	 1.7620124	 0.7535366475	 0.121543
H	-0.3091761993	-0.4270027726	-2.0876903016	 0.078056
H	-0.5237792306	-2.920436215	-1.2287376864	 0.09732
H	 1.1840669994	-2.5229906848	-1.1855554418	 0.100239
H	-0.7963103227	-2.6329802983	 1.1063628573	 0.102621
H	 0.932517611	-2.9485710448	 1.1857332236	 0.093575
H	 1.4124151779	-0.5941284801	 1.5098194312	 0.0991
H	-0.240573344	-0.5502633244	 2.0940036631	 0.095163
130.1042	184.6159	241.1689	318.3358	446.153	579.1523	658.0194	803.883	840.2249	874.6518	900.0947	916.4542	940.1829	1025.9216	1031.2926	1040.7661	1092.6494	1153.0994	1171.7315	1230.3624	1247.9469	1286.131	1319.6603	1328.8851	1362.1961	1414.0644	1479.5682	1483.8251	1487.7691	1491.1576	1507.624	1724.9593	2995.7455	2998.1797	3012.9309	3035.6104	3043.1629	3056.4681	3058.469	3098.2279	3106.6505	3178.7656
CC1=CCCC1	CC1=CCCC1	
InChI=1S/C6H10/c1-6-4-2-3-5-6/h4H,2-3,5H2,1H3	InChI=1S/C6H10/c1-6-4-2-3-5-6/h4H,2-3,5H2,1H3
