10
gdb 2643	159.61988	0.78257	0.78257	6.3203	82.74	-0.2665	-0.0718	0.1947	1344.4327	0.065892	-285.016369	-285.009105	-285.008161	-285.047272	23.786	
C	-0.0181365221	 1.4758230481	 0.0102032197	-0.520716
C	 0.0019271973	 0.0273311828	 0.0021335738	 0.236066
C	 0.0186368026	-1.1846956169	-0.0045623033	-0.233537
C	 0.0372137717	-2.5351220712	-0.0119789339	-0.202535
C	 0.0535820304	-3.7511434175	-0.0186224227	 0.456365
C	 0.0711260477	-5.1098859681	-0.0260395252	 0.078356
N	 0.0861077207	-6.2735714795	-0.0323622735	-0.328522
H	 0.9996206523	 1.8811590716	 0.0026773896	 0.171508
H	-0.5435946007	 1.8646564896	-0.8689412044	 0.171506
H	-0.5266782098	 1.8550140911	 0.9033890899	 0.171509
77.8996	78.0996	202.1096	202.2487	359.455	359.5689	519.7919	528.1442	528.1505	614.4663	614.4683	944.8478	1043.2688	1043.3903	1320.6133	1409.9101	1464.6588	1464.9354	2218.4791	2346.6363	2360.0732	3029.506	3096.1613	3096.2573
CC#CC#CC#N	CC#CC#CC#N	
InChI=1S/C6H3N/c1-2-3-4-5-6-7/h1H3	InChI=1S/C6H3N/c1-2-3-4-5-6-7/h1H3
