13
gdb 3399	4.81962	2.39469	2.21232	2.9846	54.25	-0.2398	-0.0092	0.2306	632.6523	0.101488	-344.436248	-344.430123	-344.429179	-344.466124	23.131	
O	-0.1482403472	 1.4049334754	 0.0426223887	-0.41531
C	-0.0859344812	 0.0136883613	-0.0326029115	 0.11483
C	-1.3331323855	-0.7719298748	 0.0182305274	-0.093972
C	-2.4634647187	-0.0192315342	-0.7036331693	-0.349208
C	-1.6008854788	-0.0903903754	-1.9865210802	 0.426869
O	-1.8299420069	 0.1412468818	-3.1395331021	-0.317007
C	-0.4571750996	-0.7675430772	-1.2885013003	-0.249201
H	 0.5407276843	 1.7709041759	-0.5221286462	 0.294928
H	 0.761348472	-0.4305597974	 0.4916421217	 0.102463
H	-1.4774555448	-1.6020726108	 0.6969472022	 0.109793
H	-3.3741371438	-0.6109193306	-0.830282588	 0.129396
H	-2.7112716634	 0.971864671	-0.3210746354	 0.138004
H	 0.2095857938	-1.5105233149	-1.7098150969	 0.108415
108.2729	252.8517	291.7477	389.2068	451.0083	527.0545	636.2662	640.2364	730.5149	811.6096	863.463	915.1285	957.0202	981.782	998.3335	1025.1046	1084.738	1105.3408	1144.8752	1209.0943	1217.9195	1269.8044	1299.3196	1335.2222	1437.6953	1465.6429	1883.6322	3074.4179	3097.8867	3135.959	3189.2531	3206.8761	3810.995
OC1C2CC(=O)C12	O[C@H]1[C@H]2CC(=O)[C@@H]12	
InChI=1S/C5H6O2/c6-3-1-2-4(3)5(2)7/h2,4-5,7H,1H2	InChI=1S/C5H6O2/c6-3-1-2-4(3)5(2)7/h2,4-5,7H,1H2/t2-,4-,5-/m0/s1
