13
gdb 1046	7.6972	2.05903	1.67953	3.0627	56.58	-0.1976	0.0213	0.2189	717.2702	0.103519	-340.654582	-340.648167	-340.647223	-340.685303	22.613	
C	-0.0692012919	 1.442090559	 0.1358627774	-0.333324
N	 0.3215246583	 0.0563695335	-0.1190677332	-0.388993
C	 0.7053065877	-0.7311816428	 0.944904405	 0.393332
C	 0.5624177736	-2.0459806001	 1.2722505276	-0.213501
N	 1.2789722009	-2.2969915001	 2.4406685017	-0.245969
C	 1.7894937177	-1.1607728467	 2.7605898902	 0.0614
O	 1.489567004	-0.144814078	 1.8933337043	-0.176513
H	 0.7610026851	 1.9695376153	 0.6089675321	 0.154076
H	-0.2794149125	 1.9254328498	-0.8206492209	 0.129725
H	-0.9531159318	 1.5361808769	 0.7839871888	 0.11898
H	-0.3191678677	-0.434778479	-0.7261005108	 0.247792
H	 0.0095698475	-2.8166773839	 0.7610465795	 0.108631
H	 2.3995847492	-0.899077834	 3.6093706783	 0.144364
63.2372	156.9073	206.3647	330.4298	443.1268	595.3082	663.243	700.5533	732.7885	775.6553	777.3338	937.0579	972.2257	1061.9865	1096.3254	1122.4891	1151.6036	1154.9903	1259.3178	1296.1441	1381.3184	1450.0215	1478.8452	1491.2368	1515.45	1574.422	1660.4817	2994.8611	3099.6861	3141.7272	3268.2437	3286.3904	3599.6733
CNC1=CN=CO1	CNc1cnco1	
InChI=1S/C4H6N2O/c1-5-4-2-6-3-7-4/h2-3,5H,1H3	InChI=1S/C4H6N2O/c1-5-4-2-6-3-7-4/h2-3,5H,1H3
