8
gdb 38	36.49282	4.31175	4.04493	1.7341	28.53	-0.2537	-0.0341	0.2196	303.8129	0.060508	-228.992613	-228.987769	-228.986825	-229.019918	14.78	
O	 0.1937585635	 1.3717099521	 0.3139829669	-0.404641
C	 0.0499263706	 0.0140548073	-0.0452623853	-0.143592
C	-1.4088802453	-0.3963567997	-0.2060157413	 0.120718
O	-1.7772946205	-1.372338604	-0.8036168902	-0.223592
H	-0.0172318567	 1.9126913219	-0.4533775754	 0.293628
H	 0.6044047816	-0.2651976582	-0.9520572529	 0.124725
H	 0.4674040566	-0.5752167892	 0.7817626973	 0.147144
H	-2.1183505498	 0.3007596199	 0.2987051509	 0.08561
81.0382	310.8397	327.5373	525.4614	715.6205	1030.2281	1065.8516	1096.9701	1208.6969	1337.8103	1396.3518	1398.271	1461.8149	1840.1261	2867.751	3012.4369	3060.7469	3822.443
OCC=O	OCC=O	
InChI=1S/C2H4O2/c3-1-2-4/h1,4H,2H2	InChI=1S/C2H4O2/c3-1-2-4/h1,4H,2H2
