19
gdb 4813	5.33936	1.20924	1.07013	1.9326	79.79	-0.1968	0.0477	0.2445	1172.7101	0.16611	-327.968906	-327.960311	-327.959367	-328.002699	31.031	
C	 0.0963461471	 1.5535621098	 0.1852607837	-0.359474
C	-0.0976685612	 0.0491593268	-0.0705931445	-0.293545
C	 0.6462505143	-0.4520367833	-1.2756078488	 0.275603
C	 0.0943630494	-0.8627049482	-2.4699512269	-0.201464
N	 1.1036730173	-1.2477104661	-3.320093443	 0.027631
C	 0.9318652331	-1.6529408365	-4.6977065162	-0.333901
C	 2.3060043593	-1.077024853	-2.6813699503	-0.086486
C	 2.0596670988	-0.590398608	-1.4190675763	-0.268721
H	 1.1540533103	 1.793570818	 0.3337734724	 0.116247
H	-0.2579005203	 2.1417967563	-0.6672274434	 0.113979
H	-0.451773763	 1.8772197184	 1.0765362543	 0.103048
H	 0.2210507828	-0.5061523986	 0.8213186642	 0.099077
H	-1.1667928445	-0.1616789367	-0.1921918655	 0.092723
H	-0.9372222388	-0.9174888146	-2.7832849582	 0.106497
H	 0.8790099005	-0.7924059481	-5.3757293183	 0.135262
H	 1.7712731846	-2.2830408945	-5.001217139	 0.138036
H	 0.0119278715	-2.2342882954	-4.8021809529	 0.138118
H	 3.230385505	-1.3226612288	-3.1807849161	 0.109735
H	 2.8060321239	-0.3770500275	-0.6680266551	 0.087636
44.0887	81.6243	132.311	193.1189	204.2585	287.5485	374.0128	413.9436	592.0167	614.7061	667.8137	688.9308	709.9711	767.4628	787.2193	809.2311	944.2104	1004.685	1016.9703	1064.4825	1078.2765	1086.988	1108.8048	1148.4485	1192.5561	1256.2364	1300.4257	1343.5457	1384.1966	1403.6813	1407.807	1421.9011	1454.5965	1484.2171	1488.5175	1495.5202	1507.0195	1514.9733	1545.1252	1602.576	3016.0662	3024.696	3031.4286	3052.8463	3092.9092	3100.7034	3107.3128	3127.1274	3234.018	3244.7834	3258.0912
CCC1=CN(C)C=C1	CCc1cn(C)cc1	
InChI=1S/C7H11N/c1-3-7-4-5-8(2)6-7/h4-6H,3H2,1-2H3	InChI=1S/C7H11N/c1-3-7-4-5-8(2)6-7/h4-6H,3H2,1-2H3
