17
gdb 2887	6.33786	1.75862	1.47214	0.8513	69.64	-0.2539	0.0599	0.3138	845.963	0.149373	-272.569212	-272.561967	-272.561023	-272.601994	26.623	
C	-0.3584549805	-1.1142404474	-0.6848213808	-0.448257
C	-0.1637278933	-0.0011299496	-0.2731735396	 0.297102
C	 0.084634913	 1.336934714	 0.2409743906	-0.14387
C	-0.3677989928	 1.558735824	 1.7041617628	-0.198129
C	 0.3445479234	 2.8619732783	 2.127447205	-0.212571
C	 1.6022115051	 2.9801332618	 1.213486495	-0.212601
C	 1.5779019486	 1.7393168427	 0.2946673129	-0.198052
H	-0.5340615463	-2.0942881014	-1.0530653289	 0.18943
H	-0.4435789633	 2.0615251135	-0.3955252856	 0.099335
H	-1.4549857076	 1.60667684	 1.8038838471	 0.102974
H	-0.0221550335	 0.7122841732	 2.3074475944	 0.10859
H	-0.3149009612	 3.7225728304	 1.9783142169	 0.101263
H	 0.6041022875	 2.8484766642	 3.1892171928	 0.101048
H	 1.5527481395	 3.8965004885	 0.6171414056	 0.101249
H	 2.5296338482	 3.0328182587	 1.7896882625	 0.100979
H	 2.1450215984	 0.9142267819	 0.739134229	 0.108551
H	 1.9977325849	 1.9255905473	-0.6969339697	 0.10296
13.3014	129.8915	155.1387	283.0004	488.5031	505.9431	515.4715	622.5344	622.6186	629.3888	759.0186	820.1311	867.8611	892.8522	956.76	972.981	976.7362	1023.9875	1068.504	1081.2726	1186.9442	1198.8893	1228.4853	1256.7394	1294.0173	1309.3269	1323.4207	1329.1082	1338.6697	1376.6585	1486.6824	1494.8461	1498.4209	1518.8963	2234.8074	3000.3041	3046.104	3047.2296	3051.6852	3059.5816	3081.0572	3097.3756	3103.4525	3112.44	3506.0043
C#CC1CCCC1	C#CC1CCCC1	
InChI=1S/C7H10/c1-2-7-5-3-4-6-7/h1,7H,3-6H2	InChI=1S/C7H10/c1-2-7-5-3-4-6-7/h1,7H,3-6H2
