12
gdb 64	7.90009	3.95466	2.88643	3.9512	46.23	-0.318	0.0365	0.3545	460.694	0.102281	-211.295796	-211.289821	-211.288877	-211.324525	20.467	
C	-0.0024235041	 1.5503583696	 0.010561869	-0.380764
C	-0.0185660005	 0.0100435232	-0.0226177004	-0.11361
C	-1.4504531848	-0.5576617768	 0.0129334671	-0.380773
C	 0.7012574878	-0.4858316837	-1.2017276391	 0.265155
N	 1.2619094555	-0.8712676578	-2.1361974034	-0.322391
H	 1.0195949649	 1.9367321459	 0.0034966837	 0.138376
H	-0.5297284365	 1.9614163851	-0.8549838617	 0.137942
H	-0.5013425114	 1.9034683876	 0.9175586202	 0.12496
H	 0.52481877	-0.3622245621	 0.8552546184	 0.12985
H	-2.0242790341	-0.2142871644	-0.8525186947	 0.137939
H	-1.4443829624	-1.650269269	 0.0075410673	 0.138365
H	-1.9580549444	-0.2172588177	 0.9199676036	 0.124951
190.2346	218.7513	220.0725	283.2624	350.1659	554.3605	575.2247	769.9377	926.1478	936.6134	970.2531	1124.1191	1126.1575	1192.2352	1320.3749	1347.9651	1400.7966	1422.7845	1486.0591	1489.0608	1499.0327	1510.0787	2356.1595	3032.1544	3045.1219	3048.1442	3119.0359	3123.9557	3128.2603	3129.7725
CC(C)C#N	CC(C)C#N	
InChI=1S/C4H7N/c1-4(2)3-5/h4H,1-2H3	InChI=1S/C4H7N/c1-4(2)3-5/h4H,1-2H3
