15
gdb 4550	4.00199	1.67698	1.19077	2.0774	64.19	-0.1691	0.0642	0.2333	956.5773	0.117915	-399.820875	-399.812315	-399.81137	-399.854027	30.379	
C	-0.0553395733	 1.4610431599	 0.0267024787	-0.341737
N	-0.0138555789	 0.0157459568	-0.0006954112	-0.041937
C	-0.0119435527	-0.7713682736	-1.1542957282	-0.209098
C	 0.0957766913	-2.0772488099	-0.7558013917	 0.333489
O	 0.1157051315	-3.1424296133	-1.6111631736	-0.449989
C	 0.1727806513	-2.1141037762	 0.6707587493	-0.465052
C	 0.1042551911	-0.7991573983	 1.0802534161	 0.400598
O	 0.1393723982	-0.2265638236	 2.3132611959	-0.442133
H	 0.8956899579	 1.8983682514	-0.2999507748	 0.133272
H	-0.8509750124	 1.8256326093	-0.6299207841	 0.135088
H	-0.2603581857	 1.7920244357	 1.0448780313	 0.156233
H	-0.0936884816	-0.3304949457	-2.1322117967	 0.110547
H	 0.2147722722	-3.9447321051	-1.0918093325	 0.293496
H	 0.2583997331	-2.9841530635	 1.3044403598	 0.080213
H	 0.141149298	-0.9287591839	 2.9697530817	 0.30701
59.7948	126.899	169.5108	193.4737	231.8379	288.3969	323.8026	345.476	522.9508	572.2631	591.9918	635.3419	656.2498	660.6073	691.9213	833.9921	1007.4378	1069.8357	1129.6811	1153.1182	1173.0029	1190.7828	1239.8849	1309.7667	1367.9183	1438.3397	1457.5594	1491.3256	1512.5703	1576.9616	1584.5223	1657.2006	3027.6851	3087.6764	3153.6408	3234.0158	3285.0088	3850.2341	3855.9352
CN1C=C(O)C=C1O	Cn1cc(O)cc1O	
InChI=1S/C5H7NO2/c1-6-3-4(7)2-5(6)8/h2-3,7-8H,1H3	InChI=1S/C5H7NO2/c1-6-3-4(7)2-5(6)8/h2-3,7-8H,1H3
