16
gdb 2929	6.13475	1.92833	1.61098	1.8394	60.53	-0.2456	0.026	0.2716	790.875	0.138058	-325.799293	-325.792384	-325.79144	-325.83062	24.699	
C	 0.0345170044	 1.5342725201	-0.0443563885	-0.385773
C	 0.1043519865	 0.0063388003	 0.0027588621	-0.184752
C	 0.6551390454	-0.540812384	 1.3139143143	 0.109685
C	 0.8179200501	-2.0851203494	 1.3609930573	-0.201245
N	 2.2642264848	-2.3225043119	 1.5159442943	-0.262683
C	 2.7909687121	-1.172983265	 1.5826386936	 0.121237
O	 2.0212833951	-0.0624797369	 1.5096988013	-0.231812
H	 1.0263356558	 1.9713947952	 0.0984957857	 0.135356
H	-0.3562509941	 1.8803359099	-1.005707013	 0.115143
H	-0.6203521088	 1.924592662	 0.7426051656	 0.115033
H	-0.8954924792	-0.4236770468	-0.1408569633	 0.103064
H	 0.7270645157	-0.3724037957	-0.8177038013	 0.108234
H	 0.071320324	-0.1586070785	 2.1584049318	 0.089589
H	 0.2769380895	-2.5412749238	 2.1962932257	 0.116745
H	 0.4592131691	-2.5611992195	 0.4410429612	 0.113683
H	 3.8509340596	-0.974435126	 1.6998718933	 0.138496
66.9956	117.6829	206.6616	244.0295	389.7037	423.9238	528.2016	717.9105	775.8414	831.3406	882.2345	937.3972	958.4416	973.6277	985.6104	1012.4153	1076.3776	1116.2209	1129.8334	1153.4503	1226.6898	1295.5508	1308.3061	1322.0787	1328.6786	1366.5194	1404.5399	1411.9354	1475.7865	1498.0681	1500.9999	1508.3632	1710.9232	3021.4551	3035.9725	3037.8746	3041.32	3062.6677	3075.5416	3104.3092	3122.417	3212.4468
CCC1CN=CO1	CC[C@H]1CN=CO1	
InChI=1S/C5H9NO/c1-2-5-3-6-4-7-5/h4-5H,2-3H2,1H3	InChI=1S/C5H9NO/c1-2-5-3-6-4-7-5/h4-5H,2-3H2,1H3/t5-/m0/s1
