15
gdb 2113	4.75521	2.43239	1.74628	1.481	52.73	-0.254	0.0609	0.3149	703.2478	0.126632	-382.781841	-382.77543	-382.774486	-382.811922	24.08	
O	-0.0739219362	 1.4174248418	 0.0317183114	-0.425572
C	 0.020523166	 0.0040673219	 0.0034575456	 0.089318
C	 0.7422815903	-0.5479008163	 1.2417890171	-0.113846
O	 0.6404715524	-1.9635667673	 1.2846100531	-0.231985
C	-0.7042111469	-2.3680021269	 1.2729686391	 0.020753
O	-1.3835938678	-1.962966678	 0.1149412956	-0.234659
C	-1.4067148581	-0.5479962469	-0.0023154369	-0.090967
H	 0.8023476018	 1.7844756761	-0.1203055988	 0.290096
H	 0.5363540475	-0.3535321538	-0.8994197606	 0.08366
H	 1.809679453	-0.3053645982	 1.2304993297	 0.102118
H	 0.2924257163	-0.0933036641	 2.1404069547	 0.096908
H	-0.7099322055	-3.4593524359	 1.2830001143	 0.119727
H	-1.2201518483	-1.9692155782	 2.1681648696	 0.076569
H	-1.9660835392	-0.0932856847	 0.8322064586	 0.099019
H	-1.9213538254	-0.3066790494	-0.9348387825	 0.11886
169.3385	243.7248	254.3726	328.0173	395.458	463.4746	467.6754	483.8692	669.8311	904.5597	915.797	966.0599	971.4251	1067.0538	1075.0339	1101.8707	1110.8597	1179.4487	1202.3793	1223.7941	1251.0185	1309.2658	1328.4616	1344.8382	1365.3248	1398.3525	1440.8939	1445.4227	1494.8999	1498.3112	1512.0268	2916.4947	2970.9919	2978.1913	3006.7767	3077.8623	3107.7571	3119.0701	3824.818
OC1COCOC1	OC1COCOC1	
InChI=1S/C4H8O3/c5-4-1-6-3-7-2-4/h4-5H,1-3H2	InChI=1S/C4H8O3/c5-4-1-6-3-7-2-4/h4-5H,1-3H2
