13
gdb 3966	5.1736	1.61298	1.22962	2.8286	68.93	-0.1864	-0.0289	0.1575	900.2248	0.097542	-394.740014	-394.733273	-394.732329	-394.770823	25.456	
O	-0.1340186838	 1.3620177708	-0.1052647	-0.405474
N	 0.0595841455	-0.0386708474	-0.0865344562	-0.264886
C	-1.0672508345	-0.6572072167	 0.0697673816	 0.323905
C	-1.0947682236	-2.1036085281	 0.1169274035	-0.198201
C	-2.2770462405	-2.7307479005	 0.2799916124	 0.034508
N	-3.4401769039	-2.0136076073	 0.3998938155	-0.236353
N	-3.499848987	-0.6667840466	 0.3669348122	-0.187914
C	-2.3835663959	-0.0286318921	 0.2115483139	-0.042773
H	 0.7651246166	 1.6821916475	-0.2247619126	 0.303917
H	-0.1727525705	-2.6613417961	 0.021439799	 0.117575
H	-2.3879802898	-3.807280713	 0.3260479763	 0.13272
H	-4.3296716141	-2.4649421923	 0.5228142175	 0.27559
H	-2.4587829286	 1.0502096319	 0.188409647	 0.147389
118.6584	244.8877	245.3178	338.1689	389.5111	462.4426	474.0235	524.0016	609.1171	644.3598	734.3146	817.0488	820.1472	943.1806	955.3752	971.3767	988.7497	1042.4256	1109.9409	1244.4031	1296.5066	1361.2068	1376.1226	1451.9084	1500.7592	1627.9109	1644.9216	1702.7241	3206.813	3229.0268	3231.5292	3674.4414	3834.6487
ON=C1C=CNN=C1	ON=c1cc[nH]nc1	
InChI=1S/C4H5N3O/c8-7-4-1-2-5-6-3-4/h1-3,8H,(H,5,7)	InChI=1S/C4H5N3O/c8-7-4-1-2-5-6-3-4/h1-3,8H,(H,5,7)
