11
gdb 2811	4.07692	2.3587	1.63227	4.5927	57.59	-0.2735	-0.0033	0.2702	716.0026	0.077945	-302.239101	-302.23255	-302.231605	-302.269665	23.384	
C	-0.1284342257	-1.2135942121	 0.0015059692	-0.410981
C	-0.0530732783	-0.0153376913	 0.027010772	 0.385226
C	 0.0217518812	 1.4170418499	 0.0189844775	-0.242143
N	 0.5323386984	 2.0888088612	 1.2256947315	-0.299143
C	 1.3376092782	 2.1558352849	-0.0009830663	-0.18797
C	 2.5988555252	 1.4556384291	 0.0030986225	 0.343438
N	 3.6188531417	 0.9138764085	-0.0314941997	-0.322552
H	-0.1814271341	-2.2745558688	-0.0103232318	 0.212131
H	-0.7740488272	 1.9146938578	-0.5320622767	 0.129085
H	 0.0511005677	 2.9733394421	 1.3686520619	 0.252965
H	 1.355339763	 3.0843455387	-0.5659316701	 0.139945
96.5575	189.8027	244.9256	249.9448	441.3077	522.973	590.6143	636.4019	652.9478	677.9899	765.2635	838.7953	900.3974	961.9087	985.4385	1097.0511	1188.849	1198.5955	1238.2182	1396.3083	1437.3021	2250.6104	2366.5356	3125.7818	3147.3918	3502.283	3509.8382
C#CC1NC1C#N	C#C[C@H]1N[C@H]1C#N	
InChI=1S/C5H4N2/c1-2-4-5(3-6)7-4/h1,4-5,7H	InChI=1S/C5H4N2/c1-2-4-5(3-6)7-4/h1,4-5,7H/t4-,5+/m1/s1
