19
gdb 2369	4.02098	1.92546	1.48861	1.4171	67.57	-0.2554	0.0773	0.3327	889.0313	0.170086	-310.909942	-310.901388	-310.900444	-310.942581	31.284	
C	-0.240648841	 1.5155899813	 0.0762806083	-0.395877
C	 0.0049976615	 0.0141327203	-0.0912553178	 0.126514
O	 0.6480871418	-0.2649905616	-1.337072305	-0.435053
C	 0.7748080394	-0.5643033982	 1.0787121412	-0.006502
C	 0.0590378974	-1.1482101247	 2.2766414916	-0.302857
C	 0.8389413543	-2.0492969028	 1.3501467885	 0.001083
C	 0.1467576255	-3.0690653977	 0.4711302273	-0.397935
H	 0.7109009386	 2.055795709	 0.158500749	 0.102777
H	-0.7829803665	 1.9109280681	-0.7867929859	 0.12012
H	-0.8191492739	 1.7212952937	 0.9825433935	 0.117733
H	-0.9635313026	-0.4911395597	-0.1734156341	 0.08279
H	 1.5363465697	 0.1059651727	-1.2942506807	 0.272763
H	 1.6860221522	-0.0093056951	 1.3020608146	 0.068046
H	 0.4428858947	-0.9412217956	 3.2696684246	 0.107225
H	-1.0248064327	-1.204387045	 2.2257867002	 0.107707
H	 1.7957171757	-2.3905567899	 1.7383668455	 0.079735
H	-0.8531315796	-2.7408880681	 0.1737848565	 0.115458
H	 0.7156947019	-3.253867613	-0.4454583868	 0.126483
H	 0.0331515036	-4.0210294235	 1.0013508196	 0.10979
65.3301	126.9716	190.2203	215.9869	249.9813	259.1494	335.0588	371.9611	376.1341	497.4124	563.9553	771.5082	791.5304	853.9979	889.8442	912.0733	966.1015	1012.1145	1029.191	1066.2163	1089.0388	1099.2812	1112.8654	1149.568	1188.1293	1197.7065	1239.6518	1281.8437	1331.4546	1395.3424	1399.4733	1415.2265	1420.5161	1433.7209	1488.5795	1491.2248	1492.9824	1495.3201	1501.9762	3024.5876	3034.2584	3050.5734	3093.0813	3096.1317	3102.2022	3107.4412	3119.0372	3121.9777	3134.5512	3206.1069	3800.3952
CC(O)C1CC1C	C[C@@H](O)[C@H]1C[C@H]1C	
InChI=1S/C6H12O/c1-4-3-6(4)5(2)7/h4-7H,3H2,1-2H3	InChI=1S/C6H12O/c1-4-3-6(4)5(2)7/h4-7H,3H2,1-2H3/t4-,5-,6+/m1/s1
