10
gdb 770	9.39312	3.67878	2.65177	3.1792	44.1	-0.2328	0.0029	0.2357	457.8147	0.07509	-301.341304	-301.336451	-301.335506	-301.36923	17.997	
N	 0.0108497489	 1.3943703779	 0.1621156316	-0.584593
C	 0.033242489	 0.0155031727	 0.0404512413	 0.416802
N	-1.0827180164	-0.6816677423	-0.0014689543	-0.222687
O	-0.6793839242	-2.0238022337	-0.034112475	-0.167974
C	 0.6564566941	-2.0719119304	-0.0267408607	 0.097688
C	 1.188428603	-0.8271750594	 0.0197781978	-0.318643
H	 0.7469407741	 1.867197567	-0.3421094577	 0.254711
H	-0.8967906265	 1.7905379653	-0.0435305239	 0.261321
H	 1.092313582	-3.0591849108	-0.0537950946	 0.147729
H	 2.226582916	-0.5417152761	 0.0506697054	 0.115647
284.9615	325.8307	398.1007	592.2885	643.6115	700.1565	745.5242	781.723	867.5555	908.0864	939.3005	1002.1357	1087.5715	1136.0389	1181.5464	1332.3168	1473.5268	1522.6333	1625.262	1658.6843	3256.5435	3282.9358	3557.103	3657.1698
NC1=NOC=C1	Nc1nocc1	
InChI=1S/C3H4N2O/c4-3-1-2-6-5-3/h1-2H,(H2,4,5)	InChI=1S/C3H4N2O/c4-3-1-2-6-5-3/h1-2H,(H2,4,5)
