17
gdb 2088	4.89474	2.28504	1.65933	1.3615	66.71	-0.2335	0.0285	0.2619	776.268	0.149503	-309.731536	-309.724731	-309.723786	-309.761997	25.76	
C	-0.0185666213	 1.5304746866	 0.0488628377	-0.476371
C	-0.0034042991	 0.0295010545	-0.0213976386	 0.318293
C	-0.0528659997	-0.6488148086	-1.1686596349	-0.162044
C	 0.0092179425	-2.1504535811	-1.2361195815	-0.11439
O	 0.3697641825	-2.7569454494	-0.010353468	-0.245479
C	-0.3168172361	-2.1896230807	 1.0905943396	-0.081021
C	 0.0741154362	-0.7238463737	 1.287721056	-0.289102
H	 0.8749575577	 1.9096579174	 0.5620733249	 0.123428
H	-0.055103879	 1.9825498693	-0.9460866066	 0.119221
H	-0.8815870457	 1.8928574367	 0.6225163438	 0.120932
H	-0.1389710058	-0.1278055121	-2.1197987082	 0.079985
H	-0.959150046	-2.5504343345	-1.5935292449	 0.092011
H	 0.765403696	-2.4685977567	-1.9643972995	 0.114327
H	-1.4072698264	-2.2657654466	 0.9422289404	 0.086385
H	-0.0529690547	-2.7954330524	 1.9621977528	 0.104309
H	 1.0897552412	-0.6549473425	 1.701978508	 0.112352
H	-0.5905708524	-0.2617616662	 2.0303325391	 0.097165
132.2371	186.3466	259.1482	310.9452	328.0086	430.5802	452.984	541.9752	703.1815	783.1867	825.1112	867.0542	913.1215	985.5766	1023.1334	1029.7365	1042.5835	1062.5754	1107.5477	1160.8612	1184.6782	1231.181	1258.7899	1306.6721	1331.3844	1374.1522	1388.0724	1412.5055	1423.912	1468.4811	1478.9106	1489.0269	1490.6112	1503.3049	1747.0379	2920.2693	2964.5424	3006.8492	3014.043	3039.8157	3042.9231	3058.7088	3084.4015	3108.5848	3149.4911
CC1=CCOCC1	CC1=CCOCC1	
InChI=1S/C6H10O/c1-6-2-4-7-5-3-6/h2H,3-5H2,1H3	InChI=1S/C6H10O/c1-6-2-4-7-5-3-6/h2H,3-5H2,1H3
