15
gdb 1464	6.83111	1.1566	1.03219	3.0776	62.31	-0.2511	0.0275	0.2787	1112.4838	0.122947	-345.621773	-345.613117	-345.612173	-345.655858	29.344	
C	-0.0935695182	 1.448775123	 0.0250589504	-0.49958
C	 0.004129924	-0.0031188258	 0.0014962245	 0.078566
C	 0.0927458933	-1.2047137625	 0.0033566396	 0.037946
C	 0.1773480972	-2.659407545	-0.0609342159	-0.066563
O	-1.102795573	-3.2926796768	 0.0940769923	-0.431337
C	 0.8123152471	-3.1461799838	-1.3771664522	-0.052873
O	 0.8118702422	-4.5528752405	-1.4256275206	-0.419106
H	 0.7913072304	 1.8938098189	 0.4928424757	 0.155774
H	-0.1792291852	 1.861433011	-0.9859181429	 0.151629
H	-0.9694186184	 1.7763438433	 0.5955746403	 0.154189
H	 0.7788912355	-3.0475642677	 0.7694002279	 0.121511
H	-1.7386305262	-2.7762461458	-0.4146757907	 0.287147
H	 0.2568809689	-2.7010333035	-2.220462253	 0.080704
H	 1.8502494165	-2.8055089695	-1.4431413363	 0.115542
H	-0.0662663542	-4.8171808252	-1.1200671793	 0.286449
28.8466	95.0693	101.1935	182.4709	265.5062	301.4858	336.3055	351.7243	442.5808	519.6365	525.2989	555.1566	800.003	879.1572	1041.136	1050.9846	1053.1741	1067.4226	1095.479	1166.9129	1203.1514	1269.958	1298.5215	1375.5609	1412.3272	1418.6221	1437.3374	1475.8423	1477.9683	1502.8678	2366.1871	2959.7827	3030.2352	3047.7879	3084.6808	3092.5633	3093.2526	3761.6986	3799.4711
CC#CC(O)CO	CC#C[C@@H](O)CO	
InChI=1S/C5H8O2/c1-2-3-5(7)4-6/h5-7H,4H2,1H3	InChI=1S/C5H8O2/c1-2-3-5(7)4-6/h5-7H,4H2,1H3/t5-/m1/s1
