13
gdb 884	7.01377	2.14767	1.66123	3.7223	57.33	-0.1893	0.035	0.2243	720.44	0.102362	-340.665581	-340.658927	-340.657983	-340.695967	24.234	
C	-0.0006048488	 1.4999305103	 0.0630964228	-0.500945
C	 0.0010803296	 0.0166670711	-0.0362471093	 0.307873
C	-0.0650690052	-0.803074172	-1.0926944344	-0.132777
O	-0.030092299	-2.1268351328	-0.6774426075	-0.214832
C	 0.0621303284	-2.1408508132	 0.7001408467	 0.469776
N	 0.1188511976	-3.1511212855	 1.4634113928	-0.609721
N	 0.0802560021	-0.8164065529	 1.0834986654	-0.382101
H	 0.914907717	 1.8716282621	 0.5385494042	 0.139397
H	-0.0694407947	 1.9443545492	-0.931972663	 0.144458
H	-0.849020048	 1.8616710301	 0.656148376	 0.139425
H	-0.136575481	-0.6276170304	-2.151182138	 0.144531
H	 0.0875451727	-4.0107477156	 0.9222942689	 0.223175
H	 0.1437881894	-0.5374149504	 2.0455604452	 0.271741
113.9671	176.3367	248.9647	279.2038	359.5461	478.9345	598.1892	619.9891	685.1656	712.6209	752.3368	755.1182	921.9502	993.4313	1027.4621	1068.156	1072.9539	1098.0738	1230.5875	1256.9417	1362.1367	1416.6934	1433.1414	1474.6636	1498.3452	1723.1579	1792.3227	3026.1926	3074.6685	3130.1202	3301.8871	3543.3545	3705.2934
CC1=COC(=N)N1	CC1=CO[C@H]([NH])N1	
InChI=1S/C4H6N2O/c1-3-2-7-4(5)6-3/h2H,1H3,(H2,5,6)	InChI=1S/C4H7N2O/c1-3-2-7-4(5)6-3/h2,4-6H,1H3/t4-/m1/s1
