12
gdb 1119	5.89401	1.77448	1.42578	5.8161	48.57	-0.2545	0.0149	0.2695	798.2635	0.090779	-393.905418	-393.898035	-393.897091	-393.937268	26.151	
N	-0.1337197708	 1.3647046809	-0.0747175239	-0.568025
C	 0.1211720349	 0.0137624546	 0.1316758983	 0.465381
O	 1.1972834564	-0.4232412389	 0.4496197047	-0.334044
N	-1.0489402135	-0.753364614	 0.0087837518	-0.412617
C	-1.0938179074	-2.1502510507	-0.1306540194	 0.465381
N	-2.3737197471	-2.6422161148	 0.0983313252	-0.568025
O	-0.1660276261	-2.8347703798	-0.4780944925	-0.334044
H	 0.7140445014	 1.9118881064	-0.1032930579	 0.266588
H	-0.8047564175	 1.6131491867	-0.7867169863	 0.251339
H	-1.9282671418	-0.2612337717	 0.0217311319	 0.250139
H	-2.9202493093	-2.2092247063	 0.8282504036	 0.251339
H	-2.3962605493	-3.6512515025	 0.1147632045	 0.266588
63.3204	94.2259	188.112	382.0979	386.2474	424.6516	424.6978	506.1751	556.293	575.8516	582.942	704.2903	754.3033	783.8432	932.9221	1055.2748	1089.2045	1125.4808	1260.4488	1357.3893	1513.5741	1624.7589	1628.7175	1817.6887	1881.5345	3568.6173	3569.0415	3630.3068	3682.7135	3682.7633
NC(=O)NC(N)=O	NC(=O)NC(=O)N	
InChI=1S/C2H5N3O2/c3-1(6)5-2(4)7/h(H5,3,4,5,6,7)	InChI=1S/C2H5N3O2/c3-1(6)5-2(4)7/h(H5,3,4,5,6,7)
