9
gdb 2563	3.8377	2.64831	1.74746	3.7521	49.18	-0.3402	-0.0566	0.2836	659.7904	0.05428	-338.214346	-338.208157	-338.207212	-338.244541	21.125	
N	 0.0341915452	-1.1294164664	-0.0071232408	-0.302309
C	 0.0033410006	 0.0245202846	 0.0160854924	 0.26259
C	-0.0380771329	 1.4744102243	 0.063379538	 0.157584
C	 0.5419690686	 2.1829029967	 1.2361538061	-0.185816
O	 1.2225008591	 2.1395166407	-0.0072882733	-0.218922
C	-1.1255441447	 2.0908335853	-0.6738871183	 0.262596
N	-1.9959979348	 2.5865344365	-1.2480393602	-0.302308
H	 0.1166675976	 3.1447273341	 1.5127168128	 0.163292
H	 0.9705376213	 1.5818108142	 2.0345842633	 0.163294
134.5169	214.6376	228.0816	243.3493	492.4909	510.7682	591.7882	611.3601	634.9551	876.1134	900.1321	944.8513	1137.1786	1174.2416	1229.789	1328.4312	1512.7596	2371.7358	2372.2918	3105.2758	3211.2234
N#CC1(CO1)C#N	N#CC1(CO1)C#N	
InChI=1S/C4H2N2O/c5-1-4(2-6)3-7-4/h3H2	InChI=1S/C4H2N2O/c5-1-4(2-6)3-7-4/h3H2
