16
gdb 3552	5.06664	2.91608	2.59939	1.5946	63.17	-0.2211	0.0927	0.3138	606.5433	0.138405	-288.561991	-288.55626	-288.555315	-288.591099	23.076	
C	-0.0425250393	 1.5973190155	 0.0252985199	-0.423703
C	 0.0856127751	 0.0858267934	-0.0510348865	 0.078321
C	 0.8081136338	-0.6241020491	-1.1868979802	-0.100387
C	 2.2934978994	-0.7015680247	-0.7685153001	-0.085707
C	 2.377924767	-0.0453246145	 0.5973191102	-0.177097
N	 1.0173069827	-0.6281192344	 0.9307805532	-0.186339
C	 1.2777280894	-1.6498344621	-0.2030842485	-0.023044
H	 0.8688071412	 2.1171029832	-0.2795652924	 0.119866
H	-0.8489269251	 1.9342071537	-0.6349276129	 0.116986
H	-0.2941283399	 1.905657115	 1.0460695047	 0.127292
H	-0.8988809526	-0.3696220298	 0.1017247588	 0.080067
H	 0.511298013	-0.7726891933	-2.2184038577	 0.085352
H	 3.068406818	-0.906153265	-1.4971873449	 0.08777
H	 3.1229107278	-0.5237302414	 1.2387989579	 0.107539
H	 2.4642195285	 1.0414047583	 0.6938565906	 0.096141
H	 1.1936856212	-2.7236068146	-0.1194550319	 0.096941
183.3746	237.1491	322.6349	483.9706	561.4875	694.6235	759.1818	778.0685	797.0347	813.0101	858.6026	889.9263	909.9728	973.8955	1002.6882	1020.1979	1032.3097	1038.9628	1092.7199	1101.331	1132.798	1139.9486	1172.3796	1190.457	1252.1847	1286.0022	1301.2299	1363.2186	1394.3873	1410.7323	1487.3449	1496.4074	1528.3255	3035.8158	3043.6007	3050.7739	3098.0986	3100.3055	3124.0906	3180.8682	3188.9466	3223.8608
CC1C2C3CN1C23	C[C@H]1[C@H]2[C@H]3CN1[C@@H]23	
InChI=1S/C6H9N/c1-3-5-4-2-7(3)6(4)5/h3-6H,2H2,1H3	InChI=1S/C6H9N/c1-3-5-4-2-7(3)6(4)5/h3-6H,2H2,1H3/t3-,4+,5-,6+/m0/s1
