15
gdb 4570	5.79864	1.55209	1.23482	1.5738	73.14	-0.216	-0.0337	0.1823	952.6196	0.120784	-358.906955	-358.899697	-358.898753	-358.938455	27.202	
C	-0.0308475321	 1.5056688086	 0.0173231775	-0.471577
C	-0.0136748985	 0.0021413986	-0.0140064508	 0.301573
C	 0.2354998905	-0.7227659803	-1.1763455716	-0.06313
N	 0.2565322541	-2.0570652886	-1.2194981894	-0.310521
C	 0.0129124428	-2.6966832248	-0.0747459089	 0.360096
N	-0.0319466836	-4.0757474027	-0.1097189891	-0.568158
C	-0.2372605859	-1.9737914218	 1.1100112311	-0.070538
N	-0.2470126694	-0.6526432486	 1.1378848175	-0.283141
H	 0.1822846686	 1.9259584439	-0.9691431177	 0.119301
H	-1.0072153511	 1.8766063151	 0.3463437824	 0.136812
H	 0.7124215943	 1.8891728762	 0.7240444095	 0.135983
H	 0.4333515455	-0.2086830927	-2.1145351114	 0.104021
H	 0.4018529175	-4.479700221	-0.9266494333	 0.256849
H	 0.1689221801	-4.5611729045	 0.7503816678	 0.253957
H	-0.4312306827	-2.4957793473	 2.0457657764	 0.098472
79.6757	126.6563	298.3074	340.0344	368.3735	418.3374	434.0393	500.494	516.9661	581.614	661.9147	771.7947	793.2352	889.6402	909.1917	956.6815	999.4104	1041.7018	1062.4711	1085.2545	1249.6857	1281.3339	1324.6838	1356.8244	1409.7016	1414.0338	1476.271	1492.4748	1523.7608	1582.7587	1624.2046	1644.845	3036.9696	3095.0481	3118.9111	3133.9066	3149.3864	3576.774	3690.7629
CC1=CN=C(N)C=N1	Cc1cnc(N)cn1	
InChI=1S/C5H7N3/c1-4-2-8-5(6)3-7-4/h2-3H,1H3,(H2,6,8)	InChI=1S/C5H7N3/c1-4-2-8-5(6)3-7-4/h2-3H,1H3,(H2,6,8)
