14
gdb 2920	6.89864	1.97115	1.59259	1.3342	56.29	-0.2537	0.0239	0.2776	761.4658	0.113863	-361.717364	-361.710448	-361.709504	-361.748976	23.416	
C	-0.0421213937	 1.441367067	 0.0300179252	-0.334736
N	-0.0296407004	-0.0078248787	 0.1478643174	-0.315524
C	-1.1077032607	-0.6484519109	 0.1220554631	 0.406881
C	-1.2578820796	-2.1542683511	 0.2056499019	-0.186058
O	-2.6430809447	-2.3415944899	 0.4620975501	-0.236848
C	-3.2832257082	-1.2230607673	-0.0876606025	 0.022717
O	-2.375309224	-0.1291312188	 0.0150493067	-0.241339
H	 0.6372239999	 1.7373605992	-0.7767636439	 0.127052
H	-1.0314439501	 1.8706272509	-0.1642446898	 0.123441
H	 0.3543970801	 1.8785356418	 0.9535668323	 0.129092
H	-0.9516686993	-2.6260439091	-0.7405744517	 0.12368
H	-0.6766268306	-2.5854969589	 1.0217077248	 0.148152
H	-3.5335896593	-1.3752864468	-1.1507910689	 0.102312
H	-4.1841898894	-1.0000696073	 0.4896510554	 0.131178
53.8147	117.2046	209.0969	228.8178	246.375	480.1746	580.6674	685.3737	748.6291	848.2835	980.829	1008.9926	1032.549	1064.5091	1103.3536	1133.6131	1140.3858	1174.4191	1202.0338	1237.1962	1240.1846	1347.5703	1436.6575	1440.5243	1493.8859	1497.0687	1500.4057	1544.1928	1829.0261	2967.2502	2995.6964	3018.9159	3081.0258	3090.4654	3097.2289	3123.4744
CN=C1COCO1	CN=C1COCO1	
InChI=1S/C4H7NO2/c1-5-4-2-6-3-7-4/h2-3H2,1H3	InChI=1S/C4H7NO2/c1-5-4-2-6-3-7-4/h2-3H2,1H3
