9
gdb 19	10.78886	9.27509	5.14977	3.6367	31.83	-0.2436	0.0347	0.2783	267.6148	0.07319	-209.159302	-209.15402	-209.153076	-209.187468	16.561	
C	 0.0067988926	 1.4996973638	-0.025670302	-0.478864
C	-0.0274038512	-0.0175205065	-0.148948112	 0.396024
N	 1.1782666695	-0.6332429807	 0.0569172062	-0.504925
O	-1.0372196495	-0.6398064871	-0.4072757187	-0.348482
H	 0.9139028028	 1.9292375546	-0.4610006733	 0.125848
H	-0.8708089634	 1.9112418589	-0.5234517551	 0.152196
H	-0.0282612356	 1.7851727063	 1.0314912515	 0.14354
H	 1.9840513879	-0.1317586134	 0.3867490606	 0.255104
H	 1.1904942069	-1.639195626	 0.1000620928	 0.259558
42.3664	191.772	415.1123	515.9854	550.54	651.1583	837.7532	976.0169	1052.8193	1123.763	1336.6283	1395.3954	1472.3664	1486.2004	1619.1158	1809.9514	3043.7441	3107.7611	3160.5524	3601.175	3736.6144
CC(N)=O	CC(=O)N	
InChI=1S/C2H5NO/c1-2(3)4/h1H3,(H2,3,4)	InChI=1S/C2H5NO/c1-2(3)4/h1H3,(H2,3,4)
