13
gdb 671	6.50302	4.64374	3.2459	1.4999	53.83	-0.2299	0.0171	0.247	448.9341	0.11066	-249.332005	-249.32733	-249.326385	-249.359675	18.523	
C	-0.0479603727	 1.5306068215	 0.0162864168	-0.249905
C	 1.4058473614	 1.9634638372	 0.0422500458	-0.070264
C	 2.2457844652	 0.9293586858	-0.0442836456	-0.04325
C	 1.491549721	-0.3579034056	-0.0864695849	-0.077948
N	 0.6934291708	-0.5880540579	 1.1551159943	-0.330296
C	 0.0487419344	 0.0085581454	-0.0341819847	-0.034852
H	-0.5945500834	 1.8737275675	 0.902903416	 0.11934
H	-0.5747878632	 1.9299911603	-0.8605253593	 0.103412
H	 1.6985593374	 3.0018322494	 0.1509070525	 0.094036
H	 3.3273950522	 0.9879377534	-0.042594623	 0.094564
H	 1.8642698319	-1.2191247776	-0.6307272809	 0.085563
H	 0.434001484	-1.5730594201	 1.1916446142	 0.224492
H	-0.7085217391	-0.5651173492	-0.5575551511	 0.085108
299.939	379.5586	502.9201	694.6358	739.9347	776.439	810.0578	847.8639	908.0969	928.4449	945.6802	954.121	970.198	1009.6822	1082.5744	1113.0802	1150.1717	1166.3112	1191.6601	1242.7165	1306.4749	1333.6459	1393.3524	1408.3569	1464.0909	1665.8483	3020.388	3058.9921	3161.6848	3171.3669	3189.2782	3216.362	3470.21
C1C=CC2NC12	C1C=C[C@H]2N[C@@H]12	
InChI=1S/C5H7N/c1-2-4-5(3-1)6-4/h1-2,4-6H,3H2	InChI=1S/C5H7N/c1-2-4-5(3-1)6-4/h1-2,4-6H,3H2/t4-,5+/m1/s1
