14
gdb 3064	9.13737	1.03854	0.99529	1.087	64.08	-0.2401	0.0181	0.2581	1138.0402	0.113277	-324.507184	-324.499522	-324.498578	-324.540168	26.052	
O	 0.1537662208	 1.0954748467	-0.7462975646	-0.401025
C	-0.021172939	 0.1180159538	 0.270492121	-0.193797
C	-1.3355690565	-0.5212721342	 0.2525218543	 0.051128
C	-2.4431247727	-0.9995334817	 0.2244676077	 0.068914
C	-3.7448375379	-1.60229465	 0.2057214487	-0.158478
C	-4.4490925484	-1.8026226305	-1.098532032	-0.225483
N	-3.9281006862	-2.959704863	-0.3686521253	-0.304423
H	-0.5872602709	 1.7075154308	-0.6868392478	 0.287291
H	 0.7632818895	-0.6282939912	 0.1016071786	 0.141607
H	 0.1584754129	 0.5424806512	 1.2713799517	 0.120753
H	-4.3536883383	-1.4314488579	 1.0898099293	 0.117821
H	-5.5322683497	-1.7262667379	-1.1274342984	 0.126954
H	-3.9371423554	-1.4690092354	-1.9960689524	 0.126838
H	-3.0485684682	-3.2577844409	-0.7842556808	 0.241899
35.6934	97.764	124.8438	225.2097	278.3573	339.3079	445.1911	529.0289	580.2906	718.2773	812.6908	871.7943	960.6704	979.1165	997.0215	1040.5303	1088.5065	1119.7114	1155.0909	1209.8862	1222.0137	1258.082	1299.6796	1357.5472	1395.8496	1417.1036	1489.0129	1505.2752	2349.804	2976.5643	3060.9138	3115.7193	3139.4296	3206.9559	3504.3512	3815.5619
OCC#CC1CN1	OCC#C[C@H]1CN1	
InChI=1S/C5H7NO/c7-3-1-2-5-4-6-5/h5-7H,3-4H2	InChI=1S/C5H7NO/c7-3-1-2-5-4-6-5/h5-7H,3-4H2/t5-/m0/s1
