16
gdb 417	5.26363	3.09609	2.52678	1.104	56.8	-0.245	0.0897	0.3348	596.0747	0.141327	-271.611366	-271.604301	-271.603357	-271.641692	25.705	
C	 0.1365429964	 1.2762244005	 0.199214884	-0.244995
O	-0.2253517317	-0.0177867356	-0.2390734084	-0.277129
C	 0.5911183671	-0.5422833478	-1.253194227	 0.456398
C	 0.427128358	 0.1053316966	-2.6115093416	-0.45437
C	 1.9346187536	-1.0868360253	-0.8274494231	-0.318192
C	 0.7851074741	-2.0237078607	-1.1513452566	-0.309889
H	 1.1878123454	 1.3185041881	 0.5186677211	 0.104598
H	-0.0211234566	 2.0410516661	-0.5743595051	 0.106656
H	-0.5037425934	 1.5114491552	 1.0530122105	 0.124452
H	 0.7461327602	 1.1530842473	-2.6062053538	 0.116517
H	 1.0280989851	-0.4166613469	-3.361370289	 0.116543
H	-0.6213505871	 0.0697712975	-2.9256125453	 0.124292
H	 2.7682843858	-1.0253011233	-1.5189912571	 0.109008
H	 2.2040297467	-0.9827683777	 0.2176302138	 0.115597
H	 0.3003613445	-2.5173525537	-0.3172800424	 0.121866
H	 0.8269715018	-2.6039212903	-2.0666868799	 0.108647
103.9275	183.5474	221.0351	263.744	328.9894	343.1195	409.8353	526.3563	691.917	777.4371	855.9238	902.4388	928.8626	950.82	1032.2384	1056.384	1075.8281	1108.5412	1127.9106	1181.2434	1188.5078	1221.7973	1288.9723	1339.383	1413.2113	1452.2781	1472.9078	1479.6439	1488.0826	1497.6272	1507.7307	1512.7008	2989.2423	3032.61	3040.5532	3096.5498	3112.7003	3113.2131	3131.7845	3137.9274	3216.1298	3231.8119
COC1(C)CC1	COC1(C)CC1	
InChI=1S/C5H10O/c1-5(6-2)3-4-5/h3-4H2,1-2H3	InChI=1S/C5H10O/c1-5(6-2)3-4-5/h3-4H2,1-2H3
