14
gdb 3421	4.67867	2.84	2.07503	3.3851	56.98	-0.2314	-0.0162	0.2152	633.3246	0.115473	-324.580815	-324.575075	-324.57413	-324.6103	22.102	
O	 0.0445474058	-0.0046902462	-0.0341693423	-0.325131
C	-0.0000316606	 1.1988004289	-0.059544068	 0.450759
C	-1.2651017444	 2.0682747645	-0.1143457806	-0.3311
C	-0.8333993507	 3.3715098785	-0.8248905485	-0.214001
C	 0.672169362	 3.4529338642	-0.5973972001	-0.026436
N	 1.0303853654	 3.2742139809	 0.8121176647	-0.332071
C	 1.1791889024	 2.127406411	-0.1386203475	-0.159126
H	-2.0730532013	 1.5319841392	-0.6142330019	 0.12562
H	-1.5802744731	 2.2652964246	 0.9153934594	 0.146101
H	-1.0317491056	 3.3059238165	-1.9001437827	 0.110218
H	-1.3505648697	 4.2563301263	-0.4429348782	 0.112827
H	 1.2826844832	 4.0964311455	-1.2226474675	 0.096608
H	 1.9594648298	 3.6555868207	 0.9774401985	 0.241333
H	 2.1638635869	 1.7380594255	-0.3664697054	 0.104399
127.1034	244.5682	381.1664	447.9019	523.2718	623.752	658.8139	780.8595	819.1918	825.1428	871.5033	903.6602	923.2846	989.5807	1027.8249	1050.8937	1115.3785	1146.4966	1175.3498	1190.5388	1222.4446	1258.1019	1289.635	1342.9507	1359.5913	1405.6621	1451.1776	1489.7209	1845.3678	3049.0393	3065.7266	3093.8632	3128.8993	3165.0725	3197.9032	3495.3734
O=C1CCC2NC12	O=C1CC[C@H]2N[C@@H]12	
InChI=1S/C5H7NO/c7-4-2-1-3-5(4)6-3/h3,5-6H,1-2H2	InChI=1S/C5H7NO/c7-4-2-1-3-5(4)6-3/h3,5-6H,1-2H2/t3-,5-/m1/s1
