17
gdb 2948	5.46075	2.03151	1.71257	0.6223	60.26	-0.2588	0.0883	0.3471	781.8544	0.149473	-346.860243	-346.853079	-346.852134	-346.891881	25.596	
C	-0.019665743	 1.2782589339	 0.3362208642	-0.241908
O	-0.1188779874	-0.1323563197	 0.2712490298	-0.245657
C	-1.3740477614	-0.5849273975	-0.1728694912	 0.233967
C	-1.3136962021	-2.1246799824	-0.2580971709	-0.262559
C	-2.3119577789	-2.601534746	 0.8200902942	-0.209704
C	-2.5027474895	-1.3411159423	 1.6715117593	-0.087917
O	-2.4092868813	-0.2667173079	 0.7357791513	-0.251179
H	 0.9912962367	 1.5133564364	 0.6766130883	 0.122946
H	-0.1780987027	 1.7353879858	-0.6529201464	 0.102795
H	-0.7487207532	 1.7023064536	 1.0364091288	 0.12454
H	-1.6348467272	-0.0830052762	-1.1157632514	 0.066247
H	-1.5785995832	-2.4791236909	-1.2560867004	 0.10761
H	-0.2911122358	-2.4423313856	-0.0452309086	 0.122802
H	-3.2636871113	-2.8918725029	 0.3657424011	 0.10807
H	-1.9415345352	-3.4509488388	 1.3988587635	 0.103677
H	-3.4773999703	-1.2724526619	 2.1603192143	 0.106003
H	-1.717842874	-1.2555600176	 2.4364470541	 0.100267
60.636	131.3209	178.2626	230.7202	277.6665	425.2431	560.8319	614.3305	743.9927	825.3829	865.3901	926.8542	931.2239	958.769	985.6633	1051.2046	1073.5937	1116.9923	1139.1047	1180.6447	1203.4744	1219.3644	1236.5752	1261.3961	1309.0699	1321.7504	1360.4769	1388.0632	1403.6582	1474.6969	1481.8911	1484.17	1497.7413	1514.6672	1518.2058	2986.3965	3003.1286	3005.2216	3059.3739	3062.559	3079.7638	3099.6051	3108.8264	3122.0467	3131.0529
COC1CCCO1	CO[C@H]1CCCO1	
InChI=1S/C5H10O2/c1-6-5-3-2-4-7-5/h5H,2-4H2,1H3	InChI=1S/C5H10O2/c1-6-5-3-2-4-7-5/h5H,2-4H2,1H3/t5-/m1/s1
