9
gdb 3895	3.39649	1.53689	1.06158	3.3067	46.55	-0.263	-0.0607	0.2023	965.3567	0.049003	-375.430225	-375.421157	-375.420213	-375.469933	24.943	
C	 0.7530221179	 0.1562706395	 0.5646474597	 0.534363
C	 0.4847171575	 0.0551799325	 1.8604248112	-0.47517
H	 1.3204708946	-0.0005178615	 2.5460999999	 0.159888
C	-0.8985181614	 0.0226339555	 2.3391743815	 0.161408
O	-1.8922519603	 0.0790623655	 1.6492965403	-0.2901
N	-3.4726652176	-0.2334187369	-1.4343325055	-0.002827
N	-2.3747193179	-0.2628915546	-1.4111967507	-0.003088
H	-0.9634634471	-0.0614815305	 3.4437633549	 0.088575
O	 0.9778868024	 0.2451627905	-0.5618613205	-0.173048
5.1642	21.7521	38.8868	49.3842	83.7675	149.801	226.573	464.0908	567.6669	607.4697	803.7475	946.9017	1019.0333	1123.5116	1395.6741	1430.4509	1770.7211	2240.9321	2432.3827	2915.2111	3216.5048	5.1581	21.7513	38.8867	49.3841	83.7674	149.8009	226.5726	464.0909	567.6668	607.4696	803.7474	946.9017	1019.0331	1123.5115	1395.674	1430.4509	1770.7206	2240.9323	2432.3827	2915.211	3216.5048
O=C1C=CON=N1	[C]([CH]C=O)[O].N#N	
InChI=1S/C3H2N2O2/c6-3-1-2-7-5-4-3/h1-2H	InChI=1S/C3H2O2.N2/c4-2-1-3-5;1-2/h1-2H;
