12
gdb 577	11.77386	2.11484	1.92267	4.358	50.95	-0.2611	0.0199	0.281	625.5614	0.096776	-265.386781	-265.380879	-265.379935	-265.416377	20.445	
N	 0.0624510593	-1.066416384	-0.3318735179	-0.298717
C	 0.0395481943	 0.0491430957	-0.0345093931	 0.281107
C	-0.0107325651	 1.4701551133	 0.3287389743	-0.283654
N	 1.3092689597	 2.0811556888	 0.2353454717	-0.05977
C	 1.685425852	 2.5918542562	-1.081627852	-0.212553
C	 1.3117796943	 3.5262322468	 0.0153670125	-0.220915
H	-0.7656924785	 1.9582432127	-0.3136202599	 0.131002
H	-0.3648926918	 1.5535243782	 1.3626498397	 0.159275
H	 2.7252100692	 2.4465642616	-1.3559340408	 0.133554
H	 0.9760352828	 2.4719647475	-1.8985000044	 0.122669
H	 0.3517305537	 4.0331636319	-0.0679968935	 0.116799
H	 2.0726844101	 4.0774394013	 0.5588556934	 0.131204
83.4403	170.2355	356.9841	365.6694	395.3063	539.4927	767.4627	835.1901	902.9807	936.9682	1003.1618	1036.3561	1052.3335	1116.6018	1123.7401	1173.7415	1183.3667	1271.6491	1320.0464	1375.2883	1472.1397	1494.2306	1522.1418	2369.3335	2946.355	3063.4185	3101.1211	3106.9937	3189.9066	3204.077
N#CCN1CC1	N#CCN1CC1	
InChI=1S/C4H6N2/c5-1-2-6-3-4-6/h2-4H2	InChI=1S/C4H6N2/c5-1-2-6-3-4-6/h2-4H2
