12
gdb 339	5.40263	2.49803	1.88284	3.0426	48.36	-0.2559	-0.0573	0.1986	637.0667	0.093292	-306.383308	-306.376314	-306.37537	-306.414827	22.644	
C	-0.0187702115	 1.4842103973	 0.002210595	-0.420507
C	 0.0161948111	-0.0627912825	-0.0198192838	-0.142502
C	 0.7643469274	-0.5532718063	 1.2109459865	 0.15738
O	 1.8094779666	-1.1452695337	 1.1799926926	-0.232845
C	-1.4128336998	-0.5851561163	-0.0155617455	 0.15738
O	-1.9144093236	-1.2001200229	-0.9177678246	-0.232851
H	 0.9974198476	 1.8868403129	-0.0047485622	 0.147631
H	-0.5483510729	 1.86434417	-0.8751996442	 0.147621
H	-0.5279599726	 1.858860071	 0.8967464517	 0.132327
H	 0.5242024802	-0.4348408991	-0.9119121995	 0.122649
H	 0.2739408759	-0.296733799	 2.1790544722	 0.081859
H	-1.9925074684	-0.3296564614	 0.9021742417	 0.081856
50.5327	97.9587	199.6736	269.9431	298.1367	311.3976	495.9511	549.7546	893.5424	898.5894	944.1568	955.8351	1103.1269	1135.3047	1154.0384	1258.6487	1304.4595	1399.6594	1420.3513	1437.6811	1494.9656	1499.6195	1819.6278	1853.1358	2848.1109	2868.5797	3040.6601	3102.0091	3117.627	3127.5147
CC(C=O)C=O	CC(C=O)C=O	
InChI=1S/C4H6O2/c1-4(2-5)3-6/h2-4H,1H3	InChI=1S/C4H6O2/c1-4(2-5)3-6/h2-4H,1H3
