13
gdb 3429	4.9129	2.9645	2.13238	4.5061	53.25	-0.263	0.0102	0.2731	606.9522	0.10391	-344.486202	-344.480752	-344.479808	-344.51539	20.706	
O	 0.0177806634	 0.0233869917	 0.20331962	-0.343294
C	 0.0358957355	 1.203140713	 0.0074193607	 0.448789
O	-1.1139247418	 1.9314679109	-0.1605918628	-0.230531
C	-0.8369080578	 3.2532248318	-0.65060837	-0.096162
C	 0.658101639	 3.4715331284	-0.4822228248	-0.059098
C	 1.1891302129	 3.2728018842	 0.9017754159	-0.283676
C	 1.2119829624	 2.1221292666	-0.090966273	-0.177144
H	-1.1339978016	 3.3029626738	-1.7043504651	 0.12207
H	-1.4482720057	 3.9585505939	-0.0790921705	 0.124295
H	 1.1712952412	 4.1234573515	-1.1776008714	 0.108312
H	 2.1505362042	 3.7131438005	 1.1389039948	 0.1296
H	 0.4932783955	 3.2240828043	 1.733604707	 0.135649
H	 2.1519220029	 1.7115842494	-0.4318170608	 0.12119
168.8918	237.1169	367.9167	471.1573	616.3458	711.5405	768.714	783.8617	833.854	859.993	919.6134	975.8076	990.0811	1023.708	1068.0307	1082.479	1101.4081	1130.8783	1178.6489	1197.7137	1237.2834	1327.8457	1366.6782	1402.5242	1488.7372	1519.751	1883.8609	3038.4404	3084.4389	3132.8074	3195.516	3217.9605	3227.48
O=C1OCC2CC12	O=C1OC[C@H]2C[C@@H]12	
InChI=1S/C5H6O2/c6-5-4-1-3(4)2-7-5/h3-4H,1-2H2	InChI=1S/C5H6O2/c6-5-4-1-3(4)2-7-5/h3-4H,1-2H2/t3-,4-/m1/s1
