13
gdb 1111	5.54577	1.92748	1.4431	4.0603	52.65	-0.2671	-0.0025	0.2646	798.185	0.100727	-377.829134	-377.821606	-377.820662	-377.861613	26.077	
C	-0.3296314014	 1.323457121	 0.2069536024	-0.456124
C	 0.2849269713	-0.0108286055	-0.1227613827	 0.435874
N	 1.4725595593	-0.3948753381	 0.115344208	-0.529019
O	-0.6457354173	-0.783602737	-0.7374495387	-0.251032
C	-0.5062082444	-2.1068701434	-1.2179802541	 0.469371
N	 0.7045519936	-2.6623602238	-1.0416562273	-0.554095
O	-1.4728020942	-2.5978322704	-1.7307277168	-0.358876
H	 0.3899220473	 1.9767474061	 0.7028906766	 0.128865
H	-0.686217574	 1.8038861449	-0.7087494937	 0.160366
H	-1.198867947	 1.1810517508	 0.8555094651	 0.16037
H	 2.0059083739	 0.333119536	 0.5813276442	 0.233065
H	 1.4426218183	-2.1317221046	-0.5870102022	 0.293138
H	 0.8218812845	-3.602598926	-1.3764687008	 0.268096
38.5193	104.2213	133.3863	258.3659	370.5784	392.3611	449.1896	553.9565	560.7058	626.9467	704.5108	775.1704	832.4051	840.4851	944.4226	1048.2445	1069.5667	1101.3861	1165.4308	1300.9477	1378.8653	1415.4614	1468.5024	1478.7243	1590.6212	1723.1244	1890.306	3052.5336	3119.8057	3146.1078	3434.1993	3536.9072	3708.0782
CC(=N)OC(N)=O	C[C]([NH])OC(=O)N	
InChI=1S/C3H6N2O2/c1-2(4)7-3(5)6/h4H,1H3,(H2,5,6)	InChI=1S/C3H6N2O2/c1-2(4)7-3(5)6/h4H,1H3,(H2,5,6)
