12
gdb 542	7.43799	2.17321	1.82085	3.2052	44.01	-0.281	0.0033	0.2843	648.7955	0.095121	-343.517848	-343.511052	-343.510108	-343.54935	22.123	
O	-0.578573587	 1.3789985831	-0.0627364571	-0.416187
C	-0.1418192149	 0.0359571733	 0.0204085722	-0.067104
C	-1.3152512459	-0.9365201713	-0.0178834662	-0.086057
O	-2.0064265953	-0.7977948982	-1.2644648829	-0.184736
C	-3.1647201083	-0.1056517078	-1.2688121261	 0.164351
O	-3.74633559	 0.1646879564	-2.2756644297	-0.273799
H	-0.7871506716	 1.5647815275	-0.9838389156	 0.300518
H	 0.5687738073	-0.2123983435	-0.779983846	 0.111596
H	 0.3797917241	-0.0749103132	 0.9775473955	 0.119655
H	-0.9735470887	-1.9737876029	 0.0479681518	 0.123303
H	-1.9985884522	-0.7330462698	 0.8156536682	 0.120195
H	-3.5068430975	 0.1645681264	-0.2521030342	 0.088267
38.8538	117.6173	169.5333	284.5397	344.6297	394.0682	506.1852	634.5129	885.0066	907.7695	1035.1587	1046.7785	1061.0737	1116.2184	1172.6897	1235.5921	1308.8239	1392.9925	1399.2429	1409.2858	1428.0865	1489.3727	1495.7237	1864.7646	2964.5221	3013.5278	3033.5892	3079.6462	3098.9498	3824.3609
OCCOC=O	OCCOC=O	
InChI=1S/C3H6O3/c4-1-2-6-3-5/h3-4H,1-2H2	InChI=1S/C3H6O3/c4-1-2-6-3-5/h3-4H,1-2H2
