13
gdb 223	4.7465	2.83377	2.77452	4.8465	49.98	-0.2931	0.0216	0.3148	564.648	0.105718	-286.506282	-286.499096	-286.498152	-286.5365	25.46	
C	-0.0305343196	 1.5461464705	 0.0014138558	-0.408152
C	-0.0107016464	 0.0075301469	 0.0288814389	 0.201268
C	 0.745373417	-0.530866633	 1.2564701488	-0.408132
O	-1.3349727745	-0.5176464445	-0.0215420163	-0.443081
C	 0.6520776688	-0.4862166937	-1.1980904166	 0.298069
N	 1.21068643	-0.8482798084	-2.1415901567	-0.332212
H	 0.9820352346	 1.9560930166	-0.0403203196	 0.139057
H	-0.592806834	 1.8989903326	-0.8654093932	 0.147817
H	-0.5135991938	 1.9175490775	 0.9118411593	 0.11548
H	 0.2631082619	-0.1618436034	 2.1682932647	 0.115484
H	 0.7227786572	-1.6224162559	 1.2624090161	 0.147825
H	 1.7861671906	-0.1964626496	 1.2604997048	 0.139055
H	-1.7923651318	-0.2104882857	 0.769405794	 0.287522
188.1134	195.8083	209.2593	229.1424	272.0844	350.3701	406.0369	406.682	585.4204	592.7748	704.5419	891.8306	924.0439	976.6151	1020.1723	1148.9927	1188.074	1204.8106	1380.0795	1394.8125	1415.5616	1476.2564	1478.4288	1493.1401	1507.66	2366.7274	3037.9753	3042.6083	3111.5441	3117.7072	3140.1477	3141.9166	3805.6348
CC(C)(O)C#N	CC(C)(O)C#N	
InChI=1S/C4H7NO/c1-4(2,6)3-5/h6H,1-2H3	InChI=1S/C4H7NO/c1-4(2,6)3-5/h6H,1-2H3
