10
gdb 30	27.39459	4.53005	4.08342	0.7067	40.09	-0.2592	0.0566	0.3157	333.9589	0.084338	-155.897345	-155.892291	-155.891347	-155.924226	17.13	
C	-0.0309584028	 1.5477502514	 0.0316794503	-0.366522
C	 0.0148537474	 0.0096247149	-0.0208215404	-0.30935
C	 0.690990728	-0.4995457544	-1.2085762407	 0.308487
C	 1.2522227532	-0.8951446724	-2.1952787854	-0.465859
H	 0.9789930039	 1.9662160906	 0.0337383382	 0.130303
H	-0.5608235427	 1.95002902	-0.835807453	 0.130303
H	-0.5457670751	 1.8822551872	 0.9370906223	 0.115232
H	 0.5192013498	-0.3742539801	 0.8749622379	 0.131213
H	-1.0064480152	-0.3903083769	 0.0134063167	 0.131216
H	 1.7459454133	-1.2560418704	-3.0629941461	 0.194978
199.9694	220.9045	359.7271	518.7518	615.2308	632.5834	784.996	848.5944	1022.9028	1087.5442	1106.3369	1283.9151	1345.4061	1406.7593	1474.9652	1494.2625	1505.3793	2238.5343	3023.2245	3045.7123	3051.1846	3119.6379	3125.6028	3508.028
CCC#C	CCC#C	
InChI=1S/C4H6/c1-3-4-2/h1H,4H2,2H3	InChI=1S/C4H6/c1-3-4-2/h1H,4H2,2H3
