15
gdb 3609	4.12041	4.09885	2.93987	1.7578	59.35	-0.2354	0.0773	0.3127	542.4212	0.127448	-308.465534	-308.460588	-308.459644	-308.493864	20.549	
C	-0.0369850874	 1.5060084684	 0.0280524828	-0.235669
C	 1.5151745366	 1.5683536923	 0.0158017125	-0.050062
C	 2.1369696301	 1.159461867	 1.37940494	-0.235669
C	 1.7856799306	-0.3163403282	 1.0786931611	 0.113991
O	 0.3807769992	-0.5867622542	 1.2880666641	-0.305801
C	 0.0409046864	-0.0382083743	-0.0058778581	 0.113991
C	 1.5394229478	 0.0470271045	-0.4133429889	-0.092711
H	-0.5712849462	 1.9582493859	 0.8682677866	 0.101159
H	-0.4482810609	 1.8875359647	-0.9128718682	 0.099371
H	 1.9901442939	 2.37525567	-0.5413696255	 0.068175
H	 3.223046167	 1.30229474	 1.3692627302	 0.099371
H	 1.7218142329	 1.5927109098	 2.2936812947	 0.101159
H	 2.4180551828	-1.1166609869	 1.4682950004	 0.075272
H	-0.7463628974	-0.6122258774	-0.4987418276	 0.075272
H	 2.0137672644	-0.3889878916	-1.2882448039	 0.072151
318.9501	334.3043	442.6158	656.4247	698.8684	774.9703	827.2441	832.5586	851.1862	858.6663	940.2606	945.5761	959.2679	984.8437	1001.7821	1025.6022	1108.1079	1113.5398	1116.9586	1149.308	1160.6792	1190.5777	1208.2729	1253.6992	1274.3342	1281.4017	1299.343	1325.1674	1348.5868	1462.3381	1473.893	3041.6636	3042.1019	3085.0843	3088.6544	3100.5336	3102.0011	3110.8381	3153.0307
C1C2CC3OC1C23	C1[C@H]2C[C@H]3O[C@@H]1[C@@H]23	
InChI=1S/C6H8O/c1-3-2-5-6(3)4(1)7-5/h3-6H,1-2H2	InChI=1S/C6H8O/c1-3-2-5-6(3)4(1)7-5/h3-6H,1-2H2/t3-,4-,5+,6+
