11
gdb 2125	3.76356	3.27649	1.80803	2.8741	47.43	-0.2394	-0.104	0.1354	636.5783	0.077504	-380.402442	-380.396375	-380.395431	-380.432716	21.156	
O	 0.0039026287	-0.0095052476	-0.0742623541	-0.262457
C	-0.0404145912	 1.1875139486	-0.0250235879	 0.292896
C	-1.2468245573	 2.1012225315	 0.1002669498	-0.19237
O	-0.7896444345	 3.4051447552	-0.2463093496	-0.253792
C	 0.5895486986	 3.5390125691	 0.084216792	-0.19237
C	 1.1858047387	 2.1475836716	-0.0357420536	 0.292896
O	 2.3366448282	 1.8169178249	-0.0946538367	-0.262458
H	-2.0537857854	 1.8148250365	-0.5787394193	 0.155597
H	-1.6327668523	 2.0637374157	 1.1333285257	 0.133231
H	 1.0537659617	 4.2478863728	-0.6058989672	 0.155597
H	 0.7297034449	 3.9134343416	 1.1126806309	 0.133231
100.112	146.8079	303.5923	344.9014	503.8412	567.4621	624.4962	649.5591	706.6245	871.3564	946.3904	1029.7155	1063.4739	1110.2124	1148.6838	1197.45	1226.1517	1310.198	1356.7213	1463.337	1476.201	1858.8006	1873.5763	2964.4043	2971.5354	3101.1378	3103.7035
O=C1COCC1=O	O=C1COCC1=O	
InChI=1S/C4H4O3/c5-3-1-7-2-4(3)6/h1-2H2	InChI=1S/C4H4O3/c5-3-1-7-2-4(3)6/h1-2H2
