10
gdb 757	9.47028	3.73148	2.68299	3.8286	44.81	-0.218	0.0127	0.2307	454.2223	0.0748	-301.343578	-301.338618	-301.337674	-301.371585	18.261	
N	 0.0250160493	 1.3773030422	 0.1679771913	-0.588878
C	-0.0788206336	 0.0127043353	 0.0535257551	 0.479938
C	-1.1406316921	-0.8511904618	 0.0223810254	-0.343118
C	-0.509025862	-2.1182472234	-0.0260012169	 0.053987
N	 0.7985014555	-2.0496485707	-0.0274913335	-0.160724
O	 1.0757262227	-0.6629704139	 0.0230539219	-0.209264
H	 0.9067240306	 1.7532975145	-0.1508033028	 0.268429
H	-0.7693849098	 1.8939222472	-0.1771769975	 0.266081
H	-2.1913383595	-0.6188683759	 0.0391618128	 0.107104
H	-0.9736192712	-3.0945349935	-0.0610469659	 0.126448
270.1091	286.2381	392.2011	575.1629	629.5598	699.276	722.3026	748.0389	888.3845	920.8701	934.644	1023.4268	1057.9772	1090.4826	1231.9506	1326.9484	1419.2421	1547.6485	1625.2613	1670.0943	3235.7882	3284.1687	3574.0651	3679.4332
NC1=CC=NO1	Nc1ccno1	
InChI=1S/C3H4N2O/c4-3-1-2-5-6-3/h1-2H,4H2	InChI=1S/C3H4N2O/c4-3-1-2-5-6-3/h1-2H,4H2
