10
gdb 3880	7.39742	2.3304	1.77513	3.6857	44.69	-0.2229	0.031	0.2539	632.6095	0.068348	-392.672883	-392.666896	-392.665952	-392.702597	21.444	
N	 0.057964757	 1.338563951	 0.1549821592	-0.579522
C	-0.037871312	-0.0210670763	 0.0617932503	 0.497646
N	-1.1147080929	-0.7314792553	 0.0539044326	-0.308422
N	-0.6046415597	-2.0314459374	 0.0523349293	-0.315194
C	 0.7502131111	-2.0861217893	 0.0246643309	 0.480019
O	 1.5295093439	-2.993079859	-0.0069525677	-0.385744
O	 1.1214013193	-0.7195829441	 0.0423264216	-0.22915
H	 0.8661262319	 1.7361262141	-0.3014017174	 0.274848
H	-0.8058669998	 1.8193452011	-0.0502493068	 0.276479
H	-1.2244382788	-2.8203629048	 0.0233230779	 0.28904
132.133	247.6725	299.6034	360.3254	415.5951	550.9504	593.2352	672.6116	713.2226	763.7018	804.1675	907.35	994.7387	1051.775	1174.8002	1221.3344	1385.0203	1469.4471	1620.2449	1726.6264	1928.8001	3573.9039	3682.1808	3711.9571
NC1=NNC(=O)O1	Nc1n[nH]c(=O)o1	
InChI=1S/C2H3N3O2/c3-1-4-5-2(6)7-1/h(H2,3,4)(H,5,6)	InChI=1S/C2H3N3O2/c3-1-4-5-2(6)7-1/h(H2,3,4)(H,5,6)
