10
gdb 455	8.03253	3.84232	2.70377	5.0601	38.98	-0.2935	0.0401	0.3336	455.3293	0.074926	-342.352279	-342.34739	-342.346446	-342.380838	16.45	
O	 0.0020073939	 0.0042403394	 0.0029592952	-0.366595
C	-0.0141127915	 1.1919583042	 0.0096439492	 0.506779
O	-1.1208262813	 1.9547149316	-0.1943525774	-0.2382
C	-0.811349675	 3.3303100199	 0.0380181278	-0.101347
C	 0.7247933472	 3.3513425229	 0.0054586899	-0.101347
O	 1.071523907	 1.9821249774	 0.2223804022	-0.2382
H	-1.2719810591	 3.9352545165	-0.7448456034	 0.137664
H	-1.2155230415	 3.6282173973	 1.0112034165	 0.131792
H	 1.1205842942	 3.6710428523	-0.9642504143	 0.131792
H	 1.1689569157	 3.9597163283	 0.795151527	 0.137664
135.214	187.3974	522.4235	707.6737	725.7341	775.3988	882.6618	898.4918	968.4216	1068.6531	1106.8451	1137.2407	1160.3975	1239.4714	1243.8059	1388.9644	1412.5995	1522.4002	1530.2618	1932.0883	3050.436	3052.5884	3112.8359	3126.8787
O=C1OCCO1	O=C1OCCO1	
InChI=1S/C3H4O3/c4-3-5-1-2-6-3/h1-2H2	InChI=1S/C3H4O3/c4-3-5-1-2-6-3/h1-2H2
