12
gdb 4518	3.64979	1.89612	1.25433	2.2763	52.86	-0.187	0.0363	0.2233	874.5187	0.084126	-451.817343	-451.810032	-451.809088	-451.848531	27.043	
N	 0.067834135	 1.4063804764	-0.1557595124	-0.603752
C	-0.0025486432	 0.0194155534	-0.0646115509	 0.192767
C	-1.0823269157	-0.794596305	-0.0332440654	 0.236859
O	-2.4094607744	-0.6025417051	 0.0808518923	-0.419362
O	-0.6019621434	-2.1192180158	-0.0015202584	-0.225789
C	 0.7307129569	-1.9593300551	-0.0268755732	 0.475283
O	 1.4816937392	-3.0614362227	-0.0164557304	-0.402881
N	 1.1654037634	-0.7463113158	-0.0633930756	-0.382934
H	 0.9378456751	 1.7524985994	 0.2278547455	 0.256157
H	-0.7226387032	 1.8701270262	 0.2723506907	 0.250333
H	-2.8328031773	-0.6806633013	-0.7844865627	 0.307454
H	 0.8961916277	-3.8261107946	 0.0387996104	 0.315866
199.9247	209.8639	252.6621	280.8123	304.3914	335.3369	338.9499	400.0187	576.4941	641.6023	649.5941	669.0612	732.4087	772.0101	840.7099	1013.5335	1082.3774	1128.0595	1224.922	1249.7912	1340.8187	1413.2612	1440.7121	1633.8303	1700.8158	1768.8714	3542.9106	3641.0979	3722.921	3819.4783
NC1=C(O)OC(O)=N1	Nc1c(O)oc(O)n1	
InChI=1S/C3H4N2O3/c4-1-2(6)8-3(7)5-1/h6H,4H2,(H,5,7)	InChI=1S/C3H4N2O3/c4-1-2(6)8-3(7)5-1/h6H,4H2,(H,5,7)
