11
gdb 948	6.31354	2.91643	1.99492	2.6127	53.66	-0.2547	-0.0356	0.2191	589.2643	0.081891	-335.683118	-335.677266	-335.676322	-335.713378	20.266	
N	-0.0159970617	 1.3284077549	 0.0080585865	-0.550904
C	 0.0022730494	-0.0183760139	 0.0008012278	 0.463547
N	-1.1855244405	-0.6556055466	 0.0041956097	-0.304025
C	-1.086892912	-1.9775292968	-0.003381837	 0.083368
N	 0.0386257418	-2.6979425871	-0.0136002979	-0.265449
C	 1.1441867128	-1.9471929637	-0.0159243876	 0.083368
N	 1.2069205626	-0.6230761881	-0.0092704335	-0.304025
H	 0.8510425512	 1.8348753207	 0.0057410119	 0.273001
H	-0.8964566785	 1.8111155997	 0.0155841876	 0.273001
H	-2.0234441607	-2.5325551241	-0.0009520711	 0.12406
H	 2.0954487557	-2.476551455	-0.0241633666	 0.12406
47.4571	181.4726	371.9247	405.1693	567.3509	578.9062	594.0258	712.	850.1918	910.0543	995.9919	1002.8321	1025.9219	1050.7373	1179.6007	1236.9926	1341.255	1404.7883	1425.7173	1504.1199	1581.751	1616.4974	1651.7592	3152.1959	3156.1624	3630.7274	3770.5736
NC1=NC=NC=N1	Nc1ncncn1	
InChI=1S/C3H4N4/c4-3-6-1-5-2-7-3/h1-2H,(H2,4,5,6,7)	InChI=1S/C3H4N4/c4-3-6-1-5-2-7-3/h1-2H,(H2,4,5,6,7)
