14
gdb 864	6.30608	2.17788	1.63864	1.3555	61.51	-0.1764	0.0421	0.2186	744.0315	0.114106	-324.611571	-324.604717	-324.603773	-324.642046	25.24	
C	 0.1167137826	 1.4510946559	 0.025191068	-0.490734
C	-0.0696459752	-0.0202335773	-0.0373184138	 0.344364
C	-1.1422781203	-0.8383175564	-0.1680080955	-0.239866
C	-0.6555763832	-2.192806989	-0.1455317022	-0.259489
C	 0.6951092148	-2.0899723871	-0.007925341	 0.360415
N	 1.7371835146	-3.0104220434	-0.0063238073	-0.594526
O	 1.0749431906	-0.7907754237	 0.0589591053	-0.207601
H	 0.7606034117	 1.8174568709	-0.7836656708	 0.131744
H	-0.8533649098	 1.9458244675	-0.0644685732	 0.132073
H	 0.5723791506	 1.76779603	 0.9715311033	 0.128927
H	-2.1697758075	-0.5216272099	-0.2631949302	 0.098028
H	-1.2298554085	-3.1020607713	-0.2205067991	 0.091005
H	 1.4280673581	-3.9392199003	 0.2457355045	 0.252976
H	 2.5058715715	-2.7221083059	 0.586731852	 0.252685
148.6913	175.1316	198.7445	275.657	305.8185	438.0878	619.6933	625.0431	656.9869	700.1182	734.4077	767.097	813.7341	953.7044	986.5584	1019.7224	1049.3216	1065.845	1106.7698	1238.9433	1251.2516	1298.5911	1417.4458	1436.8276	1471.2705	1496.1051	1613.636	1650.9366	1674.7809	3019.2512	3063.9464	3123.0653	3246.6117	3263.6158	3538.8297	3640.6186
CC1=CC=C(N)O1	Cc1ccc(N)o1	
InChI=1S/C5H7NO/c1-4-2-3-5(6)7-4/h2-3H,6H2,1H3	InChI=1S/C5H7NO/c1-4-2-3-5(6)7-4/h2-3H,6H2,1H3
