11
gdb 3752	4.22483	3.47878	1.93127	5.2127	47.81	-0.2562	-0.0109	0.2452	608.0715	0.079273	-376.591176	-376.585148	-376.584204	-376.621335	20.711	
C	-0.0064764843	 1.4524495481	-0.0020962486	-0.350858
N	 0.0136690961	 0.0034151249	-0.0366298939	-0.136528
C	 0.063204569	-0.8398356786	-1.1084264781	 0.072463
N	 0.0682509444	-2.0866799528	-0.7791749536	-0.12605
O	 0.0180083621	-2.080154873	 0.6378897461	-0.234206
C	-0.0159018827	-0.7943636699	 1.1035858233	 0.5194
O	-0.0611857536	-0.4602657189	 2.2544789067	-0.397263
H	 0.8992591012	 1.8685491001	-0.4520546756	 0.15014
H	-0.8848400976	 1.8451472673	-0.5218662603	 0.150095
H	-0.0513096423	 1.7407300192	 1.049444376	 0.184194
H	 0.0950839077	-0.5055411664	-2.1350956921	 0.168613
98.4268	177.0944	254.8532	283.1946	518.8969	611.3269	676.0303	763.8364	784.434	885.4422	886.7377	944.2357	1084.2525	1119.4474	1159.7877	1231.5041	1326.9685	1413.0774	1465.7264	1496.1684	1509.9698	1649.8476	1886.1279	3046.6974	3113.7188	3152.3321	3256.8419
CN1C=NOC1=O	Cn1cnoc1=O	
InChI=1S/C3H4N2O2/c1-5-2-4-7-3(5)6/h2H,1H3	InChI=1S/C3H4N2O2/c1-5-2-4-7-3(5)6/h2H,1H3
