13
gdb 463	7.02791	3.53681	2.66173	1.5301	49.75	-0.2473	0.0239	0.2712	509.7285	0.109629	-286.508233	-286.502604	-286.50166	-286.53756	19.822	
C	 0.0642054712	 1.526678004	 0.0495906685	-0.386024
C	-0.0091755703	 0.0019162402	-0.008221031	 0.035677
C	 0.7697181816	-0.6258515759	-1.1990695844	-0.115805
O	 1.7192747031	-1.5241769115	-0.573862867	-0.220472
C	 1.5116511647	-1.3883002798	 0.7577313677	 0.122354
N	 0.6127999949	-0.6081717125	 1.1879878357	-0.268974
H	 1.1063759871	 1.8611515422	 0.0817675025	 0.120842
H	-0.4149264797	 1.9729076825	-0.8283781632	 0.112757
H	-0.4396186691	 1.8980154933	 0.9455998899	 0.132814
H	-1.0628588573	-0.3004026952	-0.0320952741	 0.09113
H	 0.144200314	-1.211116201	-1.8776285093	 0.119812
H	 1.3320156539	 0.1130213284	-1.7790632841	 0.115645
H	 2.1682716659	-1.9941918147	 1.3727331988	 0.140245
71.6029	236.951	325.4316	370.4823	567.0758	699.6503	831.2798	857.8914	933.8794	939.3866	964.5244	965.0911	1073.5105	1111.6851	1143.5737	1161.3216	1225.9942	1306.4233	1318.6524	1361.6007	1378.1851	1408.3879	1488.5417	1496.8858	1518.5621	1709.0846	3028.6804	3035.1166	3048.6626	3100.486	3105.7793	3123.8818	3213.4032
CC1COC=N1	C[C@H]1COC=N1	
InChI=1S/C4H7NO/c1-4-2-6-3-5-4/h3-4H,2H2,1H3	InChI=1S/C4H7NO/c1-4-2-6-3-5-4/h3-4H,2H2,1H3/t4-/m0/s1
