12
gdb 2509	3.44081	2.31779	1.45016	3.0851	56.84	-0.2904	-0.015	0.2754	797.411	0.087497	-323.326298	-323.318647	-323.317702	-323.35819	26.004	
C	-0.149048568	 1.3812038811	-0.0870283832	-0.246573
O	 0.1812488011	 0.0105915656	 0.0873090891	-0.225888
C	 0.7283332767	-0.5862119751	-1.065501158	-0.171952
C	 1.2533857537	-1.9072460651	-0.7266820485	 0.303126
C	 1.7073384235	-2.9862872833	-0.4670818815	-0.379917
C	-0.2788394728	-0.6897319207	-2.1567937443	 0.281185
N	-1.067467685	-0.7262003837	-2.9997230193	-0.320875
H	 0.7343648428	 1.9705570235	-0.3732076769	 0.117084
H	-0.9305702543	 1.5173427936	-0.8457412456	 0.139814
H	-0.5183956715	 1.7318260712	 0.8775813422	 0.146179
H	 1.5523492464	 0.0340933972	-1.4610858473	 0.143124
H	 2.1010438676	-3.9448797241	-0.2318701066	 0.214691
99.4945	129.9396	169.5931	183.2282	255.7756	350.0531	365.8247	507.7165	570.383	602.5142	652.4259	693.4491	881.7084	984.0498	1031.4946	1132.4883	1181.138	1212.7679	1326.6492	1342.4673	1476.7943	1487.5779	1506.7847	2257.3191	2358.408	2949.4131	2995.1628	3059.0238	3141.8291	3501.2297
COC(C#C)C#N	CO[C@@H](C#C)C#N	
InChI=1S/C5H5NO/c1-3-5(4-6)7-2/h1,5H,2H3	InChI=1S/C5H5NO/c1-3-5(4-6)7-2/h1,5H,2H3/t5-/m0/s1
