17
gdb 3130	5.5204	1.95408	1.72624	1.9094	63.79	-0.229	0.0737	0.3027	785.0168	0.148139	-309.676327	-309.669328	-309.668384	-309.707325	26.188	
C	-0.2236897186	 1.5349208811	-0.0194932637	-0.37151
C	 0.0937187598	 0.0351501159	 0.0694202608	-0.29569
C	 0.7711359088	-0.4947615617	-1.162803163	 0.298602
C	 0.0401088945	-0.9401197909	-2.419622174	-0.341211
C	 0.9644087176	-1.8877674845	-1.7180854063	 0.043711
O	 2.3201718642	-1.6418793889	-2.1007272974	-0.287935
C	 2.2476351016	-0.311231958	-1.5210771054	-0.125553
H	 0.688497561	 2.1256359952	-0.156681241	 0.117562
H	-0.8852231236	 1.7457044917	-0.8658709348	 0.121012
H	-0.7148746202	 1.8890196309	 0.8919641419	 0.112698
H	 0.7287247266	-0.1540998566	 0.9451551952	 0.099592
H	-0.8339559643	-0.5256284404	 0.238137695	 0.099526
H	-1.0206445158	-1.126526549	-2.2763531747	 0.110359
H	 0.3142630082	-0.5593428462	-3.4002442873	 0.111869
H	 0.7093557423	-2.8758552683	-1.3510556215	 0.101981
H	 2.5127751923	 0.4729841103	-2.2405238856	 0.102218
H	 2.8997239855	-0.2414231807	-0.6413414882	 0.10277
76.5694	169.5017	213.8398	304.4279	344.4917	398.3933	457.7406	643.2301	754.4621	784.4766	854.4025	879.4719	929.5008	977.6234	984.6546	1003.5946	1006.3305	1039.0355	1062.8576	1075.0752	1092.1508	1140.7659	1160.1315	1230.968	1277.1589	1292.5373	1336.0747	1360.9507	1406.9793	1416.1224	1477.7506	1485.2571	1498.3584	1506.795	1517.3799	3011.8136	3016.489	3033.8293	3050.5937	3061.9288	3101.9782	3107.6069	3108.2991	3173.766	3200.0584
CCC12CC1OC2	CC[C@]12C[C@H]1OC2	
InChI=1S/C6H10O/c1-2-6-3-5(6)7-4-6/h5H,2-4H2,1H3	InChI=1S/C6H10O/c1-2-6-3-5(6)7-4-6/h5H,2-4H2,1H3/t5-,6-/m1/s1
