15
gdb 3195	4.15397	3.54108	3.15692	1.4993	59.96	-0.2368	0.0098	0.2466	547.0879	0.128515	-308.512721	-308.507733	-308.506789	-308.541082	20.832	
C	-0.0073216466	 1.5553171998	-0.0002822388	-0.065532
O	 1.3744104733	 1.9316937595	 0.00061769	-0.278653
C	 2.1257611161	 0.6804374539	 0.0113297379	 0.069776
C	 1.2671764429	-0.2053982882	-0.9027386385	-0.217421
C	 0.0260555894	-0.0050236828	 0.0082743705	-0.095008
C	 0.6142758245	-0.3816846494	 1.3588993811	-0.075053
C	 1.8880532844	 0.0282880805	 1.3661670269	-0.073029
H	-0.5141249586	 1.9695836347	 0.878870867	 0.096626
H	-0.4913778218	 1.9431681228	-0.905809035	 0.096936
H	 3.1503315269	 0.9064417302	-0.2781220995	 0.073257
H	 1.1556890966	 0.2079000958	-1.9092145674	 0.099513
H	 1.5967750703	-1.2442192921	-0.9460831872	 0.102912
H	-0.9091071745	-0.4821773661	-0.2821715847	 0.068148
H	 0.04579698	-0.7923635518	 2.1840068206	 0.097921
H	 2.5837039671	 0.0304821034	 2.1950200771	 0.09961
293.7509	407.5563	491.3169	509.4435	680.133	744.4837	804.2847	807.9924	854.3942	873.7827	917.8987	923.4919	949.4199	956.5289	967.2897	996.1445	1035.8755	1068.5068	1126.6919	1135.8675	1180.7523	1213.6618	1271.6598	1274.896	1293.1329	1297.9866	1352.1078	1367.8395	1490.0991	1522.1193	1634.9346	3013.8184	3057.4259	3066.0833	3125.0738	3135.3053	3141.4575	3200.7943	3227.6533
C1OC2CC1C=C2	C1O[C@@H]2C[C@H]1C=C2	
InChI=1S/C6H8O/c1-2-6-3-5(1)4-7-6/h1-2,5-6H,3-4H2	InChI=1S/C6H8O/c1-2-6-3-5(1)4-7-6/h1-2,5-6H,3-4H2/t5-,6+/m1/s1
