15
gdb 1554	5.77781	1.29152	1.10745	0.4306	59.31	-0.2652	0.0309	0.2962	1018.4298	0.122288	-345.605387	-345.596848	-345.595904	-345.638373	29.818	
O	-0.0650993877	 1.452080122	-0.0301134153	-0.424086
C	 0.029994476	 0.0368370478	 0.0305656027	-0.080977
C	-1.3872201178	-0.5195177132	-0.0283054712	-0.177921
C	-1.4142284255	-2.0567055017	 0.0263229885	-0.061726
O	-0.7702423363	-2.5638459992	 1.1955490279	-0.417242
C	-2.7828186445	-2.5668695387	-0.0966927435	 0.294387
C	-3.9156874026	-2.9650327486	-0.1534710784	-0.436586
H	 0.8197922223	 1.8152966604	 0.0672615796	 0.286238
H	 0.6182349465	-0.361071993	-0.8135703183	 0.083515
H	 0.517363294	-0.300151383	 0.955433823	 0.10247
H	-1.9719678495	-0.1151182537	 0.8064000664	 0.107602
H	-1.8737945352	-0.1822601761	-0.9498245978	 0.119268
H	-0.8147091575	-2.4493329653	-0.8052419669	 0.11887
H	-1.3603583634	-2.4035088623	 1.9407359823	 0.285872
H	-4.9109332987	-3.3304959954	-0.2176770189	 0.200318
84.6423	102.6184	122.4908	210.1803	258.0534	267.4837	309.5422	359.6041	441.4951	563.0537	572.6803	631.2213	673.1027	799.9624	886.266	974.3324	1029.0184	1071.0699	1092.1424	1109.086	1209.0962	1232.1006	1277.7657	1303.9274	1320.2888	1363.6539	1418.4416	1460.8493	1484.138	1531.0702	2233.5189	2960.4724	3025.1271	3027.7196	3043.6434	3090.8835	3502.9073	3803.0813	3831.3723
OCCC(O)C#C	OCC[C@@H](O)C#C	
InChI=1S/C5H8O2/c1-2-5(7)3-4-6/h1,5-7H,3-4H2	InChI=1S/C5H8O2/c1-2-5(7)3-4-6/h1,5-7H,3-4H2/t5-/m0/s1
