11
gdb 2492	2.7778	2.77724	1.46484	0.22	62.51	-0.2684	0.0267	0.2952	786.1834	0.074439	-268.85955	-268.852048	-268.851104	-268.890837	27.097	
C	-0.005184467	-1.2270223631	 0.0372923605	-0.436819
C	 0.0109640477	-0.0287247178	-0.0128854314	 0.349072
C	 0.0183507696	 1.4430064514	-0.0532193789	-0.523857
C	 1.3895654642	 1.9777743193	-0.0158438442	 0.349235
C	 2.5023959615	 2.4226916694	 0.0326641287	-0.436895
C	-0.7299705991	 1.9555751777	-1.2129158751	 0.349269
C	-1.3530865804	 2.3821648421	-2.1448195695	-0.436946
H	-0.0153923182	-2.2884355252	 0.0739611698	 0.205796
H	-0.4973543983	 1.7986139835	 0.8532984307	 0.169553
H	 3.4893820068	 2.8133299548	 0.0688324963	 0.205796
H	-1.8998960268	 2.756334458	-2.974906277	 0.205796
128.6478	128.9423	155.2349	326.9111	327.1462	333.4536	548.8939	548.9632	567.8464	643.2127	643.4113	644.4804	658.1941	660.8268	660.9763	844.006	1028.1802	1028.2623	1277.3454	1277.7764	2247.9758	2247.9913	2255.6274	2979.0708	3503.1774	3503.6002	3504.6991
C#CC(C#C)C#C	C#CC(C#C)C#C	
InChI=1S/C7H4/c1-4-7(5-2)6-3/h1-3,7H	InChI=1S/C7H4/c1-4-7(5-2)6-3/h1-3,7H
