12
gdb 3418	5.14068	3.01175	2.15642	3.3039	51.5	-0.2665	0.0017	0.2681	588.325	0.091685	-360.502305	-360.496929	-360.495985	-360.53144	20.149	
N	-0.101334607	 1.2442006795	 0.2690228669	-0.543763
C	-0.0335681913	 0.0170547072	-0.0137060213	 0.44663
O	 1.1157202787	-0.6782746402	-0.2833702063	-0.249796
C	 0.827228022	-1.977521647	-0.8318328081	-0.112908
C	-0.6594807899	-2.181123992	-0.6352351944	 0.025276
O	-1.0351574493	-2.0638121644	 0.7327764391	-0.239852
C	-1.1935818156	-0.9144759027	-0.1220834423	-0.058498
H	 0.8258592917	 1.6729034666	 0.2465803245	 0.228278
H	 1.0950385596	-1.9886284784	-1.8950241848	 0.121715
H	 1.4312546003	-2.7167390379	-0.2978330337	 0.135889
H	-1.2228185202	-2.8792835289	-1.2465151513	 0.118012
H	-2.1990194591	-0.5384448819	-0.2638335884	 0.129016
161.4132	261.2848	396.4872	426.1971	628.2515	702.4528	771.1815	843.1475	868.59	874.7729	908.652	945.0953	959.8164	1045.6706	1064.6475	1100.1723	1124.8479	1224.4002	1243.4717	1272.5863	1329.3051	1392.3201	1424.7985	1502.4123	1785.8828	3038.7548	3096.139	3169.755	3209.7097	3472.9387
N=C1OCC2OC12	[NH][C]1OC[C@H]2O[C@@H]12	
InChI=1S/C4H5NO2/c5-4-3-2(7-3)1-6-4/h2-3,5H,1H2	InChI=1S/C4H5NO2/c5-4-3-2(7-3)1-6-4/h2-3,5H,1H2/t2-,3-/m1/s1
