11
gdb 1218	6.60328	1.4864	1.41258	4.0484	47.92	-0.2932	0.0042	0.2974	825.4474	0.078117	-376.622353	-376.615107	-376.614163	-376.655056	24.187	
N	-0.0909881098	 1.248845411	 0.0671959395	-0.558294
C	-0.0320389297	-0.0768424317	-0.2111647601	 0.518713
O	 0.6928140809	-0.6079150642	-1.0154440222	-0.384257
O	-0.9125433257	-0.7464026165	 0.6062218557	-0.252133
C	-0.9791548868	-2.1532712048	 0.4004158474	-0.197681
C	-2.2351316629	-2.5200117881	-0.2643825042	 0.261154
N	-3.2238103364	-2.821877101	-0.7790051106	-0.295274
H	 0.3982105301	 1.8699421064	-0.5529139758	 0.279636
H	-0.8457772701	 1.6090692951	 0.6249151708	 0.275855
H	-0.1304233615	-2.4769654973	-0.2087667631	 0.190249
H	-0.9339553182	-2.6345254088	 1.3811703527	 0.162031
23.7042	85.1937	245.0708	281.0659	311.7642	368.2939	447.2314	527.1484	593.5306	664.5923	776.0116	867.3011	932.9932	1038.6447	1107.8265	1117.1995	1294.5201	1336.9233	1409.021	1468.1054	1612.2332	1852.6415	2368.6176	3065.7918	3116.6294	3622.5725	3754.8925
NC(=O)OCC#N	NC(=O)OCC#N	
InChI=1S/C3H4N2O2/c4-1-2-7-3(5)6/h2H2,(H2,5,6)	InChI=1S/C3H4N2O2/c4-1-2-7-3(5)6/h2H2,(H2,5,6)
