16
gdb 358	8.93073	1.94183	1.65971	2.5012	57.	-0.2412	-0.0057	0.2356	770.4633	0.140552	-271.666841	-271.658902	-271.657958	-271.699649	26.577	
C	-0.0691209262	 1.5424193289	 0.1083076005	-0.373291
C	 0.0275483499	 0.0261193755	-0.0404066085	-0.275074
C	 0.7500411673	-0.4186045654	-1.307562059	 0.380714
O	 1.1945320367	 0.3783882123	-2.1026782916	-0.295985
C	 0.8813471053	-1.9233553582	-1.517186565	-0.275075
C	 1.6135874032	-2.3001655942	-2.8026690957	-0.373291
H	 0.9250860391	 1.9957200557	 0.1314957765	 0.130646
H	-0.6049850638	 1.9832783948	-0.7360627319	 0.13064
H	-0.5939218783	 1.8089038476	 1.0300315678	 0.107996
H	 0.5455584088	-0.4245243677	 0.8176147931	 0.118357
H	-0.9691100659	-0.4367952141	-0.0417344132	 0.118362
H	 1.3858744955	-2.3427612619	-0.635615415	 0.118361
H	-0.1288901329	-2.3552544611	-1.4947925322	 0.118357
H	 1.0954227341	-1.8999528551	-3.6777713064	 0.130638
H	 2.6253891596	-1.8870444748	-2.8100354027	 0.130648
H	 1.68134279	-3.3867841781	-2.905986711	 0.107996
32.7075	67.7295	169.5928	191.9971	195.1528	304.5405	405.0764	469.5897	621.4677	709.7579	778.939	821.8141	964.9865	999.2059	1007.2885	1019.5684	1113.1435	1137.7355	1141.1279	1262.5601	1304.835	1353.8128	1381.6998	1413.2799	1414.073	1447.2735	1460.0883	1491.3453	1491.5161	1497.3464	1497.5622	1807.0989	3012.3223	3022.3372	3037.5528	3049.1905	3050.7826	3051.2268	3121.5655	3121.9424	3127.062	3127.4412
CCC(=O)CC	CCC(=O)CC	
InChI=1S/C5H10O/c1-3-5(6)4-2/h3-4H2,1-2H3	InChI=1S/C5H10O/c1-3-5(6)4-2/h3-4H2,1-2H3
