17
gdb 2930	5.59371	1.97777	1.66022	1.0679	65.6	-0.2371	0.0311	0.2682	794.7383	0.148784	-309.719592	-309.712523	-309.711579	-309.750941	25.876	
C	-0.0488455667	 1.3777181366	-0.099484395	-0.235642
O	-0.0230041991	 0.0001818819	 0.1853214834	-0.244266
C	-1.285225331	-0.640228279	 0.0637359208	 0.136995
C	-1.649329596	-0.9436674931	-1.4197206956	-0.272068
C	-1.3468802286	-2.4141332666	-1.5704309416	-0.054431
C	-1.0873509503	-2.9963965855	-0.4020415221	-0.054872
C	-1.1639627467	-2.0238268798	 0.7473999539	-0.273029
H	 0.9602178958	 1.7622155798	 0.0697762328	 0.125525
H	-0.3317471649	 1.5923970746	-1.1413020559	 0.102438
H	-0.7492571719	 1.9151733765	 0.560313996	 0.100946
H	-2.0494630917	-0.0122064238	 0.5443486232	 0.05809
H	-2.7061918442	-0.7296653013	-1.6297552139	 0.10151
H	-1.0642219865	-0.3171648079	-2.1027983782	 0.109085
H	-1.3612368975	-2.9155869107	-2.531915917	 0.088745
H	-0.8609993121	-4.0474294487	-0.2611621813	 0.089118
H	-0.2771335386	-2.0353030954	 1.3897575277	 0.119514
H	-2.0277678501	-2.2321899876	 1.3924375829	 0.102342
67.1616	120.522	201.5446	287.8635	372.8729	392.4533	461.4651	687.5541	745.68	789.7978	829.6184	886.1027	946.6014	953.1852	976.3114	984.0509	1050.4239	1059.2258	1129.3476	1139.0602	1173.5176	1186.0341	1197.5118	1244.9749	1260.0533	1311.0729	1325.0391	1382.9594	1390.9877	1467.0981	1473.9718	1479.9944	1489.9256	1511.3668	1691.2766	2967.772	2987.4416	3012.917	3017.3204	3024.7879	3059.4573	3073.5764	3109.7636	3181.6973	3207.426
COC1CC=CC1	CO[C@H]1CC=CC1	
InChI=1S/C6H10O/c1-7-6-4-2-3-5-6/h2-3,6H,4-5H2,1H3	InChI=1S/C6H10O/c1-7-6-4-2-3-5-6/h2-3,6H,4-5H2,1H3
