15
gdb 4476	3.59225	1.79731	1.20987	2.9387	65.35	-0.1709	0.0497	0.2206	956.3077	0.119864	-396.027919	-396.019748	-396.018804	-396.060008	29.967	
C	-0.0008666083	 1.5387673877	 0.1287271063	-0.514768
C	-0.0117709898	 0.0583368466	-0.0092896362	 0.202692
C	 0.0043722928	-0.7738550374	-1.0912875904	 0.272982
O	 0.0234264494	-0.4036788081	-2.3956870061	-0.446624
N	 0.0206994996	-2.1018903743	-0.7360210026	-0.399507
C	-0.0012183775	-2.0948581995	 0.580500129	 0.380914
N	-0.0875168804	-3.2210017896	 1.3977033803	-0.596365
N	-0.0096371248	-0.8332323136	 1.0799436673	-0.346648
H	 0.8891882568	 1.9094407373	 0.6550895696	 0.119003
H	-0.0036118355	 1.9867029727	-0.8678080702	 0.150713
H	-0.87983854	 1.9227424876	 0.6643242609	 0.117818
H	 0.0423539664	-1.2225884508	-2.9040293927	 0.296115
H	-0.0146427562	-4.0561392445	 0.8301180072	 0.2596
H	 0.6149936979	-3.244658614	 2.1280182465	 0.247134
H	-0.1511807005	-0.58313712	 2.0435483911	 0.256941
128.7392	176.7781	216.9687	237.6514	250.1775	311.9068	326.7686	329.5184	428.2772	527.0594	623.4103	655.1986	672.2617	720.8837	795.4001	832.9323	986.7756	1055.0417	1066.8216	1119.025	1156.9209	1234.8738	1280.053	1353.8156	1415.318	1448.2847	1480.067	1496.5841	1527.4628	1598.4926	1652.245	1716.9336	3000.996	3038.0397	3122.0424	3523.6108	3622.7214	3669.3041	3814.973
CC1=C(O)N=C(N)N1	Cc1c(O)nc(N)[nH]1	
InChI=1S/C4H7N3O/c1-2-3(8)7-4(5)6-2/h8H,1H3,(H3,5,6,7)	InChI=1S/C4H7N3O/c1-2-3(8)7-4(5)6-2/h8H,1H3,(H3,5,6,7)
