8
gdb 144	18.70863	3.50788	3.35304	3.6533	36.45	-0.3077	-0.0072	0.3004	376.0875	0.056139	-245.983375	-245.978827	-245.977883	-246.010694	14.866	
N	 0.0100907197	-1.1375395251	-0.0333392076	-0.310451
C	 0.0130461205	 0.0170767338	 0.0122034627	 0.288802
C	-0.0157395589	 1.4636486592	 0.0611017856	-0.059983
C	 0.5235950315	 2.1850501482	 1.2303475744	-0.152317
O	 1.2431932456	 2.1308643898	 0.0050186601	-0.198805
H	-0.8111378687	 1.9196432626	-0.5247623768	 0.147319
H	 0.0943939324	 3.1518747589	 1.4858890383	 0.138533
H	 0.9500694278	 1.6147856126	 2.0523049032	 0.1469
221.7855	231.4911	546.6417	573.18	789.9084	870.4044	939.2279	1048.9021	1093.8392	1160.3734	1165.9709	1278.754	1400.0466	1520.4124	2364.4783	3099.0957	3140.5521	3197.1357
N#CC1CO1	N#C[C@H]1CO1	
InChI=1S/C3H3NO/c4-1-3-2-5-3/h3H,2H2	InChI=1S/C3H3NO/c4-1-3-2-5-3/h3H,2H2/t3-/m0/s1
