15
gdb 4197	4.3783	1.66927	1.62797	0.9564	69.3	-0.233	0.0036	0.2366	838.0004	0.119647	-362.575851	-362.569323	-362.568379	-362.60637	25.909	
O	-0.1206055399	 1.3505914058	 0.0229294578	-0.401325
N	 0.0285720563	-0.0580759291	 0.0250519449	-0.314144
C	-1.0881287853	-0.637245491	 0.0497366523	 0.502834
C	-2.5994131061	-0.3345179072	-0.0145963993	-0.164368
C	-2.6229289579	-1.5629154576	-0.9994221552	-0.217187
C	-1.5194450251	-2.1092825672	-0.0196722392	-0.151713
C	-2.3297172359	-2.173986329	 1.2869108995	-0.083739
C	-3.0233802936	-1.0290982747	 1.2900888361	-0.079788
H	 0.7965117769	 1.6437965682	 0.0063039916	 0.30519
H	-3.0001753957	 0.6429169764	-0.2662862051	 0.089517
H	-3.5565670928	-2.1294311088	-1.0396190796	 0.103113
H	-2.2413912124	-1.3289806176	-1.9976389917	 0.111202
H	-0.8384108967	-2.9165371417	-0.2769623912	 0.081734
H	-2.2797771893	-2.9597943343	 2.0264123816	 0.109346
H	-3.6942582025	-0.6239312922	 2.0335098474	 0.109328
123.1112	198.9353	311.0321	392.1081	424.5046	484.8453	566.5361	662.8839	682.7464	757.7832	789.3346	827.4516	835.4078	895.3357	918.3931	923.6533	948.4605	1000.7439	1027.8224	1055.2478	1100.2263	1126.8428	1138.4075	1201.9234	1216.1036	1240.0192	1241.9264	1318.3889	1402.5173	1481.1582	1614.0447	1804.4931	3052.1447	3126.2933	3156.5301	3169.1775	3227.6283	3253.5306	3821.1382
ON=C1C2CC1C=C2	ON=C1[C@H]2C[C@@H]1C=C2	
InChI=1S/C6H7NO/c8-7-6-4-1-2-5(6)3-4/h1-2,4-5,8H,3H2	InChI=1S/C6H7NO/c8-7-6-4-1-2-5(6)3-4/h1-2,4-5,8H,3H2/t4-,5+
