15
gdb 4062	6.99477	1.0326	0.95544	0.3517	72.32	-0.2474	0.0018	0.2491	1169.3727	0.116724	-362.574558	-362.566519	-362.565575	-362.607265	29.716	
O	-0.1604565733	 1.3291542285	 0.1423787506	-0.393966
N	 0.0121105498	-0.0669856521	 0.0960977292	-0.227458
C	-1.0982832038	-0.6539200214	-0.0569044294	 0.413135
C	-2.5352453111	-0.2260650542	-0.2647426435	-0.323292
C	-2.8458835867	-1.7094504381	-0.691182467	-0.164569
C	-1.4042541595	-2.1275015469	-0.2076979676	-0.3186
C	-3.976860483	-2.3654631845	-0.0711950122	 0.31288
C	-4.9091810701	-2.9052981096	 0.4634136002	-0.453024
H	 0.7450051497	 1.6418110738	 0.242963672	 0.307588
H	-3.0364838809	 0.0646096096	 0.6628993474	 0.13831
H	-2.7079243798	 0.5483375711	-1.0151908749	 0.133888
H	-2.9172669449	-1.7841954751	-1.7799347628	 0.112776
H	-0.7968743981	-2.6920338035	-0.9182388257	 0.128996
H	-1.4270567442	-2.6629811914	 0.7456994144	 0.135153
H	-5.7352216841	-3.3834827463	 0.9285789693	 0.198183
47.234	137.5618	204.7037	234.3801	276.5518	359.3222	446.7714	483.3744	505.8316	554.0455	623.4041	628.564	661.4292	769.4924	796.5708	918.4025	944.1016	972.1222	1033.518	1037.3494	1085.254	1171.9912	1183.296	1210.7446	1244.5931	1250.3268	1344.5458	1405.8341	1451.0008	1469.1021	1789.2054	2235.7922	3062.6432	3064.5131	3067.8653	3120.1437	3121.2278	3504.4183	3818.505
ON=C1CC(C1)C#C	ON=C1C[C@@H](C1)C#C	
InChI=1S/C6H7NO/c1-2-5-3-6(4-5)7-8/h1,5,8H,3-4H2	InChI=1S/C6H7NO/c1-2-5-3-6(4-5)7-8/h1,5,8H,3-4H2/t5-
