15
gdb 3508	6.54216	1.94945	1.88338	1.818	57.56	-0.2378	0.0752	0.313	724.1778	0.124571	-345.565792	-345.559358	-345.558414	-345.59629	23.673	
C	 0.0060444672	 1.3609416839	-0.1686875535	-0.240463
O	-0.0334635513	 0.0681963137	 0.4030817717	-0.246212
C	-1.2534956986	-0.5749284864	 0.2267331995	 0.165705
C	-1.5573410827	-1.4290899062	-1.0520999771	 0.007762
C	-0.4763866735	-2.4448824804	-0.6144863756	-0.223964
C	-1.3346773754	-2.0669576485	 0.6170375854	 0.002085
O	-2.5479649347	-2.1539595857	-0.2277105327	-0.308787
H	 0.976575254	 1.7951597577	 0.0805419098	 0.132111
H	-0.0996106212	 1.3280430672	-1.262802768	 0.111303
H	-0.7885837473	 2.0044332108	 0.2372587521	 0.112683
H	-2.1092753744	 0.0254740092	 0.5605990533	 0.081062
H	-1.8675781061	-1.1245701552	-2.0518247425	 0.091221
H	-0.6221571769	-3.4606155813	-0.9835415495	 0.106204
H	 0.5635518892	-2.1170063863	-0.6234669572	 0.113468
H	-1.3750416782	-2.5195133625	 1.6076562142	 0.095823
87.2675	174.3356	210.71	332.0486	428.3199	553.6748	580.3416	745.9201	830.021	870.758	893.536	926.6754	943.9243	1015.6934	1034.8579	1067.0396	1104.5552	1128.0293	1168.5587	1177.1302	1182.5143	1203.9995	1227.614	1239.1536	1264.1997	1291.28	1372.1141	1472.6759	1485.4134	1489.8596	1507.7106	2984.6094	3035.4724	3038.2157	3083.0531	3116.801	3122.8192	3125.9971	3163.5983
COC1C2CC1O2	CO[C@H]1[C@H]2C[C@@H]1O2	
InChI=1S/C5H8O2/c1-6-5-3-2-4(5)7-3/h3-5H,2H2,1H3	InChI=1S/C5H8O2/c1-6-5-3-2-4(5)7-3/h3-5H,2H2,1H3/t3-,4+,5+
