17
gdb 2580	3.18039	2.53599	1.75906	3.1439	60.42	-0.2469	0.0584	0.3053	770.5037	0.148	-346.831385	-346.823632	-346.822687	-346.863002	28.754	
O	 0.3022144332	 1.1989789798	-0.4240182138	-0.43009
C	 0.0588694513	-0.0544890834	 0.1858232656	-0.121068
C	-1.3895562251	-0.5023993589	 0.0792083666	 0.346447
C	-2.3519213397	 0.2701358268	 0.9478728245	-0.15837
O	-2.3072805847	 1.6503795373	 0.5628795533	-0.422499
C	-1.8767554312	-0.9917146929	-1.2613956634	-0.281661
C	-1.6776664344	-1.9701229968	-0.1320578332	-0.325493
H	-0.4258902408	 1.7728737715	-0.1511198145	 0.288265
H	 0.7089664628	-0.7788198811	-0.3181720304	 0.094264
H	 0.3536789833	-0.0452194316	 1.2509069282	 0.07313
H	-3.3719427345	-0.1263377379	 0.8343650233	 0.089503
H	-2.0658194253	 0.1630765804	 2.0056753569	 0.093919
H	-2.7341536146	 2.1739930985	 1.2473374535	 0.292915
H	-2.8924973962	-0.7506896167	-1.5562380494	 0.113065
H	-1.165257019	-0.9941536855	-2.0794754362	 0.123965
H	-0.8321861665	-2.6481613534	-0.1777013704	 0.115209
H	-2.5572801587	-2.3949139761	 0.3411933693	 0.108499
95.9353	135.4339	231.8871	261.9013	278.6032	321.8783	367.1748	440.8178	516.6415	541.6827	754.9742	780.2422	908.5982	927.0445	943.52	965.3146	994.6398	1042.129	1054.2383	1072.3451	1081.0504	1088.8732	1184.8804	1221.1723	1237.3487	1246.7266	1340.6596	1367.6498	1375.464	1458.7012	1467.637	1474.1106	1501.6921	1505.2064	1522.0368	2937.4464	2975.2339	3011.1216	3053.4482	3127.8653	3135.9986	3206.4122	3222.8645	3754.5837	3831.3744
OCC1(CO)CC1	OCC1(CO)CC1	
InChI=1S/C5H10O2/c6-3-5(4-7)1-2-5/h6-7H,1-4H2	InChI=1S/C5H10O2/c6-3-5(4-7)1-2-5/h6-7H,1-4H2
