17
gdb 1616	3.94656	1.83105	1.59806	2.8133	64.35	-0.2685	0.0274	0.296	848.8007	0.148083	-305.91553	-305.907073	-305.906129	-305.94784	30.342	
C	 0.0697156746	 1.575245049	 1.2346*^-6	-0.411404
C	 0.0013897927	 0.0429962057	 0.0408952056	 0.054609
C	 0.7651599821	-0.5290973957	 1.2408071111	-0.401659
C	-1.4621706812	-0.4768668079	 0.040133668	-0.12771
N	-2.2160392886	 0.0122055664	 1.1977530312	-0.497112
C	-2.1233012771	-0.1657667362	-1.2477025985	 0.259846
N	-2.6667450055	 0.1014882511	-2.2332042352	-0.330332
H	 1.10714997	 1.9053725809	-0.1062953193	 0.123204
H	-0.4980713912	 1.9828808661	-0.8425169071	 0.135098
H	-0.3162563907	 2.0155872325	 0.9257445677	 0.12199
H	 0.4571978845	-0.3416293908	-0.8800266172	 0.093907
H	 0.2930509659	-0.2259669754	 2.1788774751	 0.138861
H	 0.7891038425	-1.6237930376	 1.2132895285	 0.11074
H	 1.7993220898	-0.1718970534	 1.2411403787	 0.114567
H	-1.4232673459	-1.5698000257	 0.1192954998	 0.126139
H	-2.4215694186	 1.0004449584	 1.0870707369	 0.244161
H	-3.1123443035	-0.4611063876	 1.2529569002	 0.245095
83.8809	151.0957	209.6595	228.9102	237.2111	272.7369	285.8829	352.4027	364.965	492.1939	573.8456	631.8352	787.5796	856.7184	911.7452	936.9396	960.1366	980.4627	1064.7376	1092.1894	1162.4953	1205.8222	1221.7897	1302.4996	1362.9767	1365.3361	1397.6578	1400.6807	1422.5208	1487.8925	1495.7024	1505.3024	1514.2046	1663.6095	2340.8448	3028.8928	3034.8189	3038.7248	3045.3623	3102.9533	3103.6283	3110.4491	3126.1576	3504.5425	3581.0268
CC(C)C(N)C#N	CC(C)[C@@H](N)C#N	
InChI=1S/C5H10N2/c1-4(2)5(7)3-6/h4-5H,7H2,1-2H3	InChI=1S/C5H10N2/c1-4(2)5(7)3-6/h4-5H,7H2,1-2H3/t5-/m0/s1
