18
gdb 1277	6.85074	1.16697	1.08656	3.4726	65.86	-0.2396	0.0386	0.2781	1137.2336	0.158619	-327.023352	-327.014207	-327.013263	-327.059074	30.683	
C	 0.1523608691	 1.470018061	 0.1097178374	-0.377133
C	 0.2529791073	-0.0492910957	-0.046049786	-0.167424
C	 0.2551530835	-0.4836677608	-1.5170777801	-0.145466
N	 0.3372082989	-1.9236929593	-1.6930060964	-0.312442
C	 1.4950833588	-2.5578820159	-2.0474687093	 0.406194
C	 1.4071407579	-4.0761066003	-2.1106493871	-0.481125
O	 2.5270935923	-1.960989615	-2.2976521157	-0.374433
H	 0.9955112877	 1.9730604149	-0.3758041377	 0.124144
H	-0.7681957824	 1.8569726287	-0.3418048322	 0.113644
H	 0.1528419647	 1.7614403781	 1.1640685827	 0.116122
H	 1.170166318	-0.418363818	 0.4270191999	 0.114597
H	-0.5840381412	-0.5329515428	 0.4751645324	 0.086726
H	-0.6468581347	-0.1114269676	-2.0197029763	 0.098952
H	 1.1228881974	-0.0645673256	-2.0324033633	 0.147144
H	-0.463866031	-2.4820814026	-1.4492779481	 0.239754
H	 0.3930432592	-4.4661711936	-1.9886599874	 0.107847
H	 1.806282259	-4.4092606081	-3.0714148714	 0.152353
H	 2.0441832154	-4.4991723073	-1.3284409814	 0.150546
23.3452	37.116	85.3071	94.8018	233.8932	274.9682	301.1965	356.8399	438.4161	497.3231	618.3771	645.0161	747.0006	848.0498	893.9237	940.1334	992.6238	1040.4934	1050.0774	1107.4864	1127.759	1181.7595	1257.9749	1284.5992	1334.0294	1338.8813	1394.1832	1407.0662	1414.7089	1470.0255	1476.1761	1486.583	1490.8938	1499.8815	1508.8821	1541.9365	1780.1717	3017.7629	3022.5718	3031.6659	3047.7127	3063.2615	3097.2238	3107.2832	3114.9761	3121.0016	3133.588	3646.7468
CCCNC(C)=O	CCCNC(=O)C	
InChI=1S/C5H11NO/c1-3-4-6-5(2)7/h3-4H2,1-2H3,(H,6,7)	InChI=1S/C5H11NO/c1-3-4-6-5(2)7/h3-4H2,1-2H3,(H,6,7)
