11
gdb 2733	4.81945	2.29446	1.6936	4.1088	52.44	-0.2913	-0.0066	0.2848	688.7236	0.079309	-339.437849	-339.431769	-339.430825	-339.468119	21.266	
N	-0.0187435187	 1.232460383	-0.2297821989	-0.518997
C	-0.0028956671	 0.0082085834	 0.0058986439	 0.451713
O	 1.01582098	-0.859528973	 0.3288965183	-0.240601
C	 0.1024221617	-1.9884547425	 0.4527884336	-0.088466
C	-1.0824102491	-1.0795581003	 0.025938188	-0.286257
C	-2.1792942778	-0.919968067	 0.9627994593	 0.291974
N	-3.0459376909	-0.8156557754	 1.719447639	-0.309189
H	 0.9085152206	 1.6529719469	-0.1582337101	 0.24425
H	 0.3607880932	-2.7878222281	-0.2434466677	 0.140652
H	 0.0628644522	-2.3561964759	 1.479152369	 0.151285
H	-1.4689947341	-1.2978410412	-0.9725545744	 0.163636
116.7757	144.2912	236.3367	403.6142	467.7088	537.0251	644.1895	724.0867	822.8513	865.6538	931.4117	971.4296	1002.1066	1065.2033	1089.721	1160.4604	1188.6541	1213.461	1323.3678	1363.0932	1514.8316	1840.0921	2368.2558	3081.7855	3093.7766	3149.1521	3493.511
N=C1OCC1C#N	[NH][C]1OC[C@H]1C#N	
InChI=1S/C4H4N2O/c5-1-3-2-7-4(3)6/h3,6H,2H2	InChI=1S/C4H4N2O/c5-1-3-2-7-4(3)6/h3,6H,2H2/t3-/m1/s1
