19
gdb 1133	4.54798	1.37242	1.35519	0.5234	64.36	-0.2526	0.0745	0.3271	1009.7692	0.169012	-348.060054	-348.050872	-348.049928	-348.093433	33.159	
C	-0.0656323787	 1.5397880508	-0.0195295269	-0.402522
C	-0.0014562338	 0.0125977313	-0.0214117342	 0.125067
O	 0.7207185371	-0.4675753969	-1.1593186286	-0.439392
C	 0.7184977648	-0.5401902247	 1.2074977759	-0.156008
C	 0.6514786161	-2.0629648721	 1.3113313825	 0.125062
C	 1.513708442	-2.6064536453	 2.4504610718	-0.402519
O	-0.7266048133	-2.3912307278	 1.5115060517	-0.43939
H	 0.9423536142	 1.9668392272	 0.0062341861	 0.119287
H	-0.5674005071	 1.9099893017	-0.9211643831	 0.100299
H	-0.6247078689	 1.9098528523	 0.8462980401	 0.114525
H	-1.0220931218	-0.3963810042	-0.0282237482	 0.084357
H	 0.2283155413	-0.2195981168	-1.9475738752	 0.279319
H	 1.7679069461	-0.2251501873	 1.1674504152	 0.097063
H	 0.2741586387	-0.1094493194	 2.1125596292	 0.097062
H	 0.999577696	-2.4829582606	 0.3566378259	 0.084357
H	 2.5702037295	-2.3634086624	 2.2958096824	 0.114524
H	 1.1943204593	-2.1847031247	 3.4092050791	 0.119288
H	 1.4305806096	-3.6975878535	 2.5158858196	 0.100299
H	-0.8099898811	-3.3488964675	 1.4765413066	 0.27932
62.4142	110.5607	165.0974	245.0907	247.0452	267.5502	283.8941	301.1281	353.9095	423.9398	465.8543	485.8666	505.3826	839.5377	842.0094	888.8134	933.1124	975.8519	1028.0956	1060.7214	1078.0968	1105.2618	1148.4791	1160.5735	1194.207	1278.7314	1311.057	1324.0661	1373.5353	1392.2285	1405.4605	1408.3698	1422.7574	1431.538	1456.8004	1493.2308	1494.2406	1498.3707	1500.391	3002.5859	3004.4202	3025.2648	3025.5596	3035.5762	3081.4096	3091.8093	3092.1997	3108.1628	3109.5532	3823.9942	3824.0288
CC(O)CC(C)O	C[C@@H](O)C[C@@H](C)O	
InChI=1S/C5H12O2/c1-4(6)3-5(2)7/h4-7H,3H2,1-2H3	InChI=1S/C5H12O2/c1-4(6)3-5(2)7/h4-7H,3H2,1-2H3/t4-,5-/m1/s1
