15
gdb 3522	5.74522	2.53707	2.23553	1.8818	61.56	-0.2321	0.0893	0.3214	637.5547	0.125333	-308.419735	-308.414033	-308.413088	-308.448888	22.845	
C	 0.0060070055	 1.55055225	 0.0107807235	-0.361544
C	 1.313369484	 0.7578231487	-0.0068433523	-0.359988
C	 0.005598245	 0.0613243648	 0.0022853335	 0.471377
C	-0.5942974798	-1.0294647156	 0.9001320358	-0.041198
C	-1.8663095429	-1.02846936	 0.0148624394	-0.217212
C	-0.6123056133	-1.0192583342	-0.8956910335	-0.041206
O	-0.0065332425	-2.0468834006	-0.0095759525	-0.312068
H	-0.2615176895	 2.0670722209	 0.9273461698	 0.116028
H	-0.2797567765	 2.0774844508	-0.8942802154	 0.116028
H	 1.8943875194	 0.7596545728	-0.923443035	 0.11841
H	 1.9126574003	 0.7492493622	 0.8978772315	 0.118411
H	-0.4890862206	-1.188623323	 1.9739600745	 0.094436
H	-2.4232292553	-1.9661412151	 0.0151169041	 0.105265
H	-2.5019053522	-0.1398247771	 0.0262864993	 0.098824
H	-0.5286685116	-1.1661891447	-1.9731526528	 0.094436
205.4762	255.7672	280.2731	481.3256	581.3125	677.3763	719.9164	766.7068	786.0573	870.3433	870.5917	914.6306	917.0592	961.2	995.0192	1027.3182	1047.2209	1066.9228	1078.5862	1118.6621	1131.129	1170.4762	1178.8213	1182.033	1228.5609	1237.7549	1264.2977	1422.1199	1461.6518	1478.4035	1524.5248	3065.4961	3112.1588	3118.0387	3122.8669	3128.423	3150.7233	3200.5072	3214.9371
C1CC11C2CC1O2	C1CC21[C@H]1C[C@@H]2O1	
InChI=1S/C6H8O/c1-2-6(1)4-3-5(6)7-4/h4-5H,1-3H2	InChI=1S/C6H8O/c1-2-6(1)4-3-5(6)7-4/h4-5H,1-3H2/t4-,5+
