11
gdb 3547	6.0735	2.96579	2.56656	3.4963	49.42	-0.2327	-0.0076	0.2251	528.1068	0.078607	-343.1903	-343.185401	-343.184457	-343.218829	19.009	
O	 0.0305240475	 0.0650658566	-0.0278190807	-0.328183
C	-0.00365751	 1.2566054446	 0.0684596625	 0.477258
C	-1.0861165904	 2.2938991531	 0.0437447285	-0.253456
C	-0.4087445624	 3.537480977	 0.6278744465	 0.104732
O	 0.865038386	 3.161770827	 1.1585163889	-0.286415
C	 1.0516438149	 2.3890589219	-0.0606076712	-0.072267
C	-0.0940575729	 3.1982074122	-0.7739471353	-0.137573
H	-2.153898224	 2.1866467769	-0.0811766733	 0.122213
H	-0.9562654366	 4.3525805056	 1.0820599336	 0.130269
H	 2.0850981588	 2.237203242	-0.3572455729	 0.111482
H	-0.2226580408	 3.6485573531	-1.7460123666	 0.131939
178.5997	422.2656	516.7628	625.8494	721.8742	756.2958	764.3136	801.6678	835.4877	865.878	915.5498	938.6515	975.3533	1028.2756	1046.355	1078.1568	1095.5209	1129.5569	1178.0398	1229.6986	1282.9328	1358.0404	1893.8743	3178.567	3211.0955	3232.0325	3243.9118
O=C1C2C3OC1C23	O=C1[C@H]2[C@H]3O[C@@H]1[C@@H]23	
InChI=1S/C5H4O2/c6-3-1-2-4(1)7-5(2)3/h1-2,4-5H	InChI=1S/C5H4O2/c6-3-1-2-4(1)7-5(2)3/h1-2,4-5H/t1-,2-,4+,5+/m0/s1
