12
gdb 74	10.01185	3.84195	2.87635	3.5402	43.61	-0.2418	0.0387	0.2805	458.9803	0.101735	-248.443503	-248.436899	-248.435955	-248.474272	20.967	
C	 0.0061994093	 1.4593320187	-0.0389385862	-0.330877
N	-0.0641161621	 0.0142296326	-0.1204690143	-0.302776
C	-1.2059539427	-0.6819679577	 0.1611711988	 0.409063
C	-1.0898270383	-2.1928489859	 0.0209577538	-0.478028
O	-2.2448291058	-0.1444307696	 0.4999441812	-0.371008
H	 0.7505398902	 1.7837252039	 0.6971557268	 0.123271
H	 0.2569200085	 1.9039526338	-1.0087621469	 0.123267
H	-0.9785602586	 1.8112143779	 0.2708219371	 0.172381
H	 0.7582098171	-0.4954366049	-0.394640241	 0.243
H	-0.0990970338	-2.5354310354	-0.2897000333	 0.106933
H	-1.3409767098	-2.6539585106	 0.9797288543	 0.152389
H	-1.829031004	-2.5348393528	-0.7081307605	 0.152386
35.0522	84.8884	163.1046	289.9835	431.7672	439.2308	622.227	635.9538	869.7438	991.1664	1049.4613	1108.243	1156.1353	1170.8007	1267.41	1395.6034	1436.5889	1470.5198	1485.2596	1493.8481	1500.8954	1559.4073	1784.5898	3024.8902	3048.4387	3075.6175	3126.4622	3128.2863	3152.5589	3658.3634
CNC(C)=O	CNC(=O)C	
InChI=1S/C3H7NO/c1-3(5)4-2/h1-2H3,(H,4,5)	InChI=1S/C3H7NO/c1-3(5)4-2/h1-2H3,(H,4,5)
