10
gdb 1200	10.15779	1.10653	1.00403	3.6118	62.85	-0.2917	-0.1061	0.1856	1047.2237	0.064928	-322.175807	-322.168583	-322.167638	-322.207693	23.6	
C	 0.0024734989	 1.5043898075	-0.0195454718	-0.48418
C	-0.02746949	-0.0024304354	 0.0600028412	 0.24122
O	-0.0649610194	-0.6316891975	 1.0919603342	-0.248003
C	-0.0081383079	-0.7024377226	-1.2235280825	 0.099244
C	 0.0072607108	-1.3013733199	-2.2746665343	 0.006201
C	 0.024528493	-1.9711962678	-3.463834189	 0.225628
N	 0.0394598611	-2.5368159859	-4.4781586006	-0.317465
H	 0.9045334357	 1.8347017575	-0.5462821694	 0.159959
H	-0.8556352206	 1.8675748037	-0.5956711353	 0.159834
H	-0.0177751415	 1.9214198105	 0.9880193175	 0.157562
85.2917	105.9295	129.3974	232.6319	303.1011	381.2983	536.0843	568.586	584.8289	620.5296	650.217	957.2132	1041.244	1044.4004	1236.0527	1386.0248	1457.64	1464.8984	1776.0558	2250.9094	2386.5217	3040.0084	3103.9577	3157.246
CC(=O)C#CC#N	CC(=O)C#CC#N	
InChI=1S/C5H3NO/c1-5(7)3-2-4-6/h1H3	InChI=1S/C5H3NO/c1-5(7)3-2-4-6/h1H3
