17
gdb 1356	4.14556	2.26051	2.13614	1.1467	59.29	-0.2458	0.0683	0.3141	713.3081	0.14846	-346.859213	-346.851913	-346.850969	-346.890853	27.268	
C	 0.2095364456	 1.4661429555	 0.0532509778	-0.443913
C	-0.0941406832	-0.0318863691	 0.0017801147	 0.40007
O	-1.4959746843	-0.2645824826	-0.100050716	-0.473695
C	 0.6037657075	-0.7290811435	-1.1961920487	-0.272369
C	 1.713450014	-1.5864164044	-0.5485504264	-0.07487
O	 1.8492478011	-1.1127653629	 0.7893510483	-0.243091
C	 0.5402446257	-0.7758699914	 1.2037792624	-0.133003
H	 1.2866825426	 1.6323054609	 0.1522795504	 0.131356
H	-0.1414039308	 1.9640649936	-0.8554745563	 0.122379
H	-0.280757133	 1.9358641815	 0.9155501002	 0.101967
H	-1.9346114562	 0.2576321123	 0.579896359	 0.275327
H	-0.1273145704	-1.3372836288	-1.732002157	 0.120127
H	 1.0119650778	 0.0037589869	-1.8960933377	 0.104745
H	 1.4315582318	-2.6507931683	-0.5448247102	 0.093472
H	 2.6874621805	-1.492834389	-1.0349474665	 0.107052
H	 0.6172088409	-0.1719221474	 2.1129097814	 0.096133
H	-0.0643955398	-1.6732792632	 1.4161522746	 0.088312
34.5319	222.5868	272.7987	286.3703	322.7611	356.213	424.9394	448.87	592.8819	660.2404	784.7298	825.9091	930.8523	939.8762	974.7499	983.3318	990.6502	1018.4119	1104.2691	1136.2653	1175.1408	1196.6652	1233.6529	1265.9637	1287.9395	1311.3083	1345.5897	1364.6269	1399.236	1412.0507	1487.2413	1491.299	1498.4782	1506.6783	1524.3456	2968.7463	2982.9749	3019.896	3069.9196	3082.2582	3090.231	3093.282	3116.1238	3124.1822	3807.2038
CC1(O)CCOC1	C[C@@]1(O)CCOC1	
InChI=1S/C5H10O2/c1-5(6)2-3-7-4-5/h6H,2-4H2,1H3	InChI=1S/C5H10O2/c1-5(6)2-3-7-4-5/h6H,2-4H2,1H3/t5-/m1/s1
