16
gdb 2274	7.27772	1.46563	1.29628	4.0444	64.85	-0.3057	0.0351	0.3408	912.7364	0.137855	-288.650589	-288.643582	-288.642638	-288.682013	25.316	
N	 0.0635169158	-1.1768604406	-0.1426263342	-0.308668
C	 0.0277360771	-0.0317599776	 0.009637474	 0.260144
C	 0.0139017577	 1.4185459678	 0.1969988621	-0.364881
C	 1.4053591635	 2.0438249053	 0.0488778226	 0.056713
C	 2.0814761188	 2.0675719379	-1.3494184138	-0.217465
C	 2.5953565707	 3.4972026215	-1.0261054171	-0.210079
C	 1.5150307013	 3.5930175069	 0.085716624	-0.24063
H	-0.6745958481	 1.8570119497	-0.5356178578	 0.14527
H	-0.3993569442	 1.6370492439	 1.1892648044	 0.150271
H	 2.0801752684	 1.5975530067	 0.7859474249	 0.094031
H	 2.815269667	 1.2904198749	-1.5710645219	 0.112868
H	 1.3358081483	 2.079584022	-2.1512747119	 0.10445
H	 3.6055352734	 3.4801873261	-0.6082003686	 0.109272
H	 2.5634775324	 4.2395750189	-1.8260044846	 0.103345
H	 0.5987515826	 4.0655674793	-0.284338929	 0.101536
H	 1.7876845253	 4.0604934973	 1.0347087369	 0.103825
74.1674	117.8462	163.7471	314.9069	385.7267	397.4908	499.0918	647.6359	760.5887	790.3765	873.1487	904.8071	930.4543	937.3344	967.9338	974.9944	1057.4208	1109.3206	1136.9925	1201.3891	1218.3486	1258.4943	1261.0525	1269.1801	1276.665	1297.6957	1329.398	1381.876	1464.2824	1479.2353	1487.5388	1510.5197	2360.256	3032.5764	3046.9181	3051.3837	3058.6444	3064.884	3075.4738	3103.7069	3112.1114	3125.5376
N#CCC1CCC1	N#CCC1CCC1	
InChI=1S/C6H9N/c7-5-4-6-2-1-3-6/h6H,1-4H2	InChI=1S/C6H9N/c7-5-4-6-2-1-3-6/h6H,1-4H2
