14
gdb 3678	3.76852	3.27179	1.7753	1.7753	59.4	-0.1975	0.0387	0.2361	688.8492	0.115504	-320.783029	-320.776103	-320.775159	-320.813624	25.333	
C	-0.0540986236	 1.5551320172	-0.0015826451	-0.520283
C	-0.0146152087	 0.0598307287	-0.0143787766	 0.173095
C	-0.0083992575	-0.7999925693	-1.0933048967	-0.110361
N	 0.011624274	-2.0594405968	-0.6004417366	-0.196148
N	 0.0290851875	-2.094075021	 0.7554968696	-0.306996
C	 0.0062247104	-0.8130233576	 1.1086930135	 0.290932
N	-0.0653749905	-0.4334080216	 2.4522258208	-0.588127
H	 0.8693313296	 1.9931101221	 0.400489602	 0.118064
H	-0.1873595376	 1.9572305124	-1.0098336422	 0.122377
H	-0.8788617684	 1.9278736567	 0.6172232018	 0.133621
H	-0.0232701257	-0.6031880966	-2.1545130955	 0.124078
H	 0.0117103999	-2.9254903324	-1.1081986712	 0.269393
H	 0.1350174882	-1.2154093288	 3.0635040798	 0.247888
H	 0.5409320224	 0.3454169271	 2.6761642965	 0.242467
104.2901	224.5733	231.8697	271.3093	316.5041	391.7241	448.2955	632.482	646.2553	696.2858	748.8257	785.2386	796.6553	938.5507	1003.088	1065.9016	1073.6751	1102.2531	1212.6285	1251.4601	1327.5161	1419.998	1431.77	1482.7335	1488.9367	1501.6981	1542.0412	1626.0517	1652.209	3012.4671	3060.913	3105.8165	3251.1099	3532.1787	3626.3727	3696.7725
CC1=CNN=C1N	Cc1c[nH]nc1N	
InChI=1S/C4H7N3/c1-3-2-6-7-4(3)5/h2H,1H3,(H3,5,6,7)	InChI=1S/C4H7N3/c1-3-2-6-7-4(3)5/h2H,1H3,(H3,5,6,7)
