16
gdb 4785	6.71413	1.25367	1.07727	1.0743	69.59	-0.1654	0.0531	0.2185	1082.6263	0.131481	-379.933297	-379.925141	-379.924197	-379.965897	30.	
C	-0.0696154934	 1.4385646444	 0.1695607194	-0.327586
N	 0.2638719438	 0.0451859329	-0.1058802468	-0.387154
C	 0.7142338991	-0.7497937054	 0.9314202697	 0.458902
C	 0.6502832983	-2.0959457596	 1.156864394	-0.384842
C	 1.3976100172	-2.3242441706	 2.3661991172	 0.250083
N	 1.5251219425	-3.5669087284	 3.0051397216	-0.60727
C	 1.8492856218	-1.1103656047	 2.7800618612	-0.122111
O	 1.4200757091	-0.1286433355	 1.895750974	-0.188834
H	 0.810758975	 1.9512647115	 0.5613753712	 0.151268
H	-0.3560113359	 1.9193960901	-0.7686210104	 0.122101
H	-0.8872555512	 1.5613402793	 0.895786271	 0.115291
H	-0.4282577069	-0.4318766455	-0.6648019084	 0.241701
H	 0.1330891363	-2.831382118	 0.5611121544	 0.085401
H	 1.6635571421	-4.3242189279	 2.3478086273	 0.241466
H	 2.2751327318	-3.5806552301	 3.6843674775	 0.239996
H	 2.4158978003	-0.7631346526	 3.6254365272	 0.111588
57.0665	142.1654	195.4513	231.1618	244.1906	330.1515	373.2251	476.3741	549.7502	559.6203	630.586	672.5715	692.3426	714.745	757.9825	778.8266	953.6175	1004.8455	1060.2214	1097.985	1124.0131	1150.5495	1170.1324	1218.7759	1271.932	1371.7153	1436.5622	1451.2151	1489.1683	1500.2419	1516.6469	1627.2441	1656.2745	1679.5718	2990.3203	3094.9585	3138.1583	3251.7529	3293.6557	3532.2148	3604.6821	3621.0198
CNC1=CC(N)=CO1	CNc1cc(N)co1	
InChI=1S/C5H8N2O/c1-7-5-2-4(6)3-8-5/h2-3,7H,6H2,1H3	InChI=1S/C5H8N2O/c1-7-5-2-4(6)3-8-5/h2-3,7H,6H2,1H3
