17
gdb 2865	6.43407	1.28358	1.1769	2.6042	61.24	-0.2571	0.0737	0.3308	1006.2633	0.147351	-346.821661	-346.813376	-346.812432	-346.854519	29.163	
O	-0.1417270482	 1.385142856	-0.5725598382	-0.419356
C	 0.0288578641	 0.1104495564	 0.0358851475	-0.098784
C	-1.3243150548	-0.5500250259	 0.0949995646	 0.003215
C	-1.8582832918	-1.3330828557	-1.0775136567	-0.274687
C	-1.5160136066	-2.0469694818	 0.2055638163	 0.003223
C	-0.3729028315	-3.0268895617	 0.2676922593	-0.098783
O	-0.8688631648	-4.2923702897	-0.1526906935	-0.419356
H	 0.7010823534	 1.8471800394	-0.5356789613	 0.283907
H	 0.7350370032	-0.5072658291	-0.5397719607	 0.080862
H	 0.4403315687	 0.2148898539	 1.0533073297	 0.084001
H	-2.0497008424	 0.0491521407	 0.638651846	 0.091015
H	-2.9002466774	-1.2200656536	-1.3540257646	 0.112436
H	-1.1884172611	-1.4810324709	-1.9192201777	 0.112515
H	-2.3582279972	-2.3601244384	 0.8166003985	 0.091017
H	 0.4546597786	-2.6960120412	-0.3782993441	 0.080864
H	 0.0182151063	-3.0826204896	 1.2969085332	 0.084002
H	-0.1683131183	-4.9405824891	-0.0334661883	 0.283908
69.9778	101.1671	140.1887	223.4231	258.4202	264.4	324.4305	358.0195	447.6022	580.9318	790.8301	830.1849	888.5765	891.3886	947.0692	1034.5543	1048.4475	1064.542	1068.3058	1076.1561	1139.2163	1163.8242	1185.7771	1228.0754	1255.7609	1258.5234	1280.2216	1287.1045	1371.7446	1411.4794	1465.0733	1476.4401	1501.7803	1516.2374	1526.6592	2958.6794	2965.9568	2987.0979	3005.142	3129.9019	3140.2835	3150.6418	3215.716	3824.7669	3825.0054
OCC1CC1CO	OC[C@H]1C[C@H]1CO	
InChI=1S/C5H10O2/c6-2-4-1-5(4)3-7/h4-7H,1-3H2	InChI=1S/C5H10O2/c6-2-4-1-5(4)3-7/h4-7H,1-3H2/t4-,5+
