11
gdb 2114	3.91083	3.65097	1.88822	6.266	55.9	-0.2342	-0.0785	0.1557	613.3805	0.079509	-339.464024	-339.457958	-339.457014	-339.494474	21.536	
N	-0.0622350543	 1.2971625544	 0.0102263051	-0.481384
C	 0.0079643208	 0.032471248	 0.0033718906	 0.286415
N	 1.1177964374	-0.8134356429	-0.0082094383	-0.341691
C	 0.7080752194	-2.1368611642	-0.0119935592	-0.004371
C	-0.636970458	-2.2696184213	-0.0038552674	-0.258459
C	-1.215210461	-0.9239169258	 0.0065928579	 0.354493
O	-2.3681932791	-0.5646671757	 0.0158789976	-0.30686
H	 0.8633664676	 1.734072651	 0.0063408332	 0.218446
H	 2.075597779	-0.5095309485	-0.012558904	 0.263405
H	 1.4592485733	-2.9157244315	-0.0207492554	 0.145625
H	-1.1951633853	-3.1913696735	-0.0047946202	 0.124381
47.4877	218.0281	320.504	361.1237	535.8414	538.637	621.4623	744.2824	749.832	803.1158	833.848	900.2836	951.2295	1022.5965	1083.7324	1121.8056	1153.3367	1304.7368	1349.7856	1437.3326	1620.4921	1752.8023	1816.3184	3226.6636	3275.853	3434.2143	3675.1392
N=C1NC=CC1=O	[NH][C]1NC=CC1=O	
InChI=1S/C4H4N2O/c5-4-3(7)1-2-6-4/h1-2H,(H2,5,6,7)	InChI=1S/C4H4N2O/c5-4-3(7)1-2-6-4/h1-2H,(H2,5,6,7)
