16
gdb 3511	6.09037	1.95952	1.92264	2.5426	60.87	-0.2382	0.0717	0.3099	723.7391	0.138754	-325.682121	-325.675929	-325.674985	-325.712321	23.795	
O	 0.0654147087	 1.3838726617	 0.6295091341	-0.420773
C	 0.1485665992	 0.0902256106	 0.0542154199	-0.112741
C	-1.2340651076	-0.5346685655	 0.0184936873	 0.068071
C	-1.5570897719	-2.0512088838	 0.0244056606	-0.086748
C	-1.0962726	-2.0327722788	 1.4972017889	-0.177422
N	-1.9126871925	-0.7276407006	 1.4028428943	-0.168678
C	-2.9118881205	-1.5948035564	 0.6124937696	-0.163124
H	-0.4837289119	 1.2926560689	 1.4184527039	 0.295146
H	 0.5156802936	 0.2209129903	-0.9701830983	 0.108747
H	 0.8843181539	-0.5340023469	 0.580667534	 0.089056
H	-1.8694608956	 0.0760645707	-0.6327240412	 0.081986
H	-1.361871147	-2.7993122354	-0.7514661661	 0.068114
H	-1.542710143	-2.7640323033	 2.1762615477	 0.10364
H	-0.0404084527	-1.8933319314	 1.7285522992	 0.1069
H	-3.5848054789	-1.0145409799	-0.0244694426	 0.104948
H	-3.4620925137	-2.2993872103	 1.2415017387	 0.10288
85.107	174.6719	361.1482	416.6598	441.7532	589.4514	601.7266	749.5415	783.7495	792.8436	892.4992	903.5179	922.9396	1011.1632	1028.1269	1052.9611	1068.0071	1093.2421	1123.6963	1155.2983	1165.1161	1181.236	1201.8082	1222.0271	1229.2935	1250.4706	1288.9057	1350.4168	1416.7726	1450.7248	1505.5847	1524.0043	1559.7647	3000.2962	3040.289	3043.4536	3055.3896	3065.4543	3072.0352	3121.0152	3138.7284	3775.1257
OCC1C2CN1C2	OC[C@H]1[C@H]2CN1C2	
InChI=1S/C5H9NO/c7-3-5-4-1-6(5)2-4/h4-5,7H,1-3H2	InChI=1S/C5H9NO/c7-3-5-4-1-6(5)2-4/h4-5,7H,1-3H2/t5-/m0/s1
