14
gdb 4599	5.60592	1.60682	1.25859	2.7772	70.24	-0.2258	-0.0664	0.1594	922.4919	0.108015	-378.74679	-378.739872	-378.738928	-378.777947	25.753	
C	 0.0175887631	 1.5226781273	 0.2171383315	-0.467947
C	-0.0376739763	 0.0457275372	-0.0318334569	 0.243086
C	-1.1659823696	-0.6771629034	 0.0604521153	-0.008057
O	-1.2084812486	-2.0177966005	-0.1673113437	-0.224228
C	-0.0478012258	-2.6861405803	-0.5119897042	 0.358698
N	-0.0221536984	-3.9339523504	-0.7378593393	-0.523859
C	 1.1462050722	-1.8421261161	-0.5949146857	-0.01969
N	 1.1672428738	-0.5768941217	-0.3757596228	-0.270228
H	 0.7130397817	 1.7496090215	 1.0322756535	 0.141058
H	 0.3819954655	 2.049463166	-0.6712735628	 0.141059
H	-0.9655818595	 1.9222009807	 0.4785881426	 0.122394
H	-2.141124526	-0.2846623528	 0.3191753689	 0.137133
H	-0.9495141297	-4.3471700361	-0.6305120206	 0.227546
H	 2.0656074076	-2.3566108414	-0.8640832658	 0.143035
88.4375	168.912	291.1298	302.0266	365.8677	420.3531	496.2985	509.1788	628.5933	741.1742	771.9776	814.4358	860.4521	867.6873	934.1989	963.7696	1024.8787	1069.3458	1073.2711	1179.6569	1258.6353	1305.8931	1347.5439	1387.1523	1419.0758	1471.5384	1491.6013	1616.4806	1689.9136	1729.7769	3036.1583	3093.3165	3122.4229	3167.9037	3220.1791	3483.9198
CC1=COC(=N)C=N1	CC1=COC(=C[N]1)[NH]	
InChI=1S/C5H6N2O/c1-4-3-8-5(6)2-7-4/h2-3,6H,1H3	InChI=1S/C5H6N2O/c1-4-3-8-5(6)2-7-4/h2-3,6H,1H3
