17
gdb 2203	4.21475	2.21729	1.71126	2.6126	59.99	-0.2464	0.0678	0.3141	765.6238	0.14727	-346.837271	-346.829376	-346.828432	-346.868855	29.144	
C	-0.1226041461	 1.5109818644	-0.0004309845	-0.375214
C	-0.0058068531	-0.0116189595	 0.0091377523	-0.048045
C	 1.1404508522	-0.5750500826	-0.8777188424	 0.13851
O	 1.531923549	 0.2787383809	-1.9277241957	-0.426143
C	 2.0427457141	-0.6796780168	 0.3833163907	-0.314516
C	 0.7483342298	-0.591874046	 1.2389431796	 0.138476
O	 0.7353599129	 0.24456895	 2.3725005756	-0.426141
H	 0.8374001427	 1.9989468704	 0.1818908798	 0.121965
H	-0.4916061154	 1.8536312791	-0.9705898539	 0.118423
H	-0.8164832653	 1.8397094799	 0.7775507962	 0.11839
H	-0.9882278828	-0.4553054374	-0.1763876499	 0.067105
H	 0.8841191312	-1.5731109721	-1.2611289905	 0.062368
H	 2.2858968093	-0.1190818173	-2.3740919104	 0.282344
H	 2.68697756	-1.5560504987	 0.4956800708	 0.085339
H	 2.6346352113	 0.2322790693	 0.5002553319	 0.112411
H	 0.3745330461	-1.5949677674	 1.4897348914	 0.062382
H	 1.2793831138	-0.1629170062	 3.0536571688	 0.282347
99.2686	191.9812	231.6962	237.1642	239.6288	244.038	383.5653	424.5308	500.0331	546.43	642.0343	784.0151	811.3579	892.8777	911.6111	1005.2567	1019.0689	1059.0135	1093.5496	1119.4269	1163.982	1188.611	1196.7748	1221.6919	1251.0605	1287.3669	1304.4286	1347.1271	1367.5987	1406.2663	1410.885	1439.3663	1484.6787	1491.5733	1493.3116	2986.3935	2992.3511	3052.2395	3053.91	3060.5603	3115.8947	3123.687	3130.9983	3818.2832	3818.5287
CC1C(O)CC1O	C[C@H]1[C@@H](O)C[C@H]1O	
InChI=1S/C5H10O2/c1-3-4(6)2-5(3)7/h3-7H,2H2,1H3	InChI=1S/C5H10O2/c1-3-4(6)2-5(3)7/h3-7H,2H2,1H3/t3-,4-,5+
