15
gdb 1987	6.58685	1.60765	1.43529	1.836	58.33	-0.266	0.0164	0.2825	869.4901	0.123256	-345.676156	-345.668462	-345.667517	-345.709632	26.283	
C	-0.1422608436	 1.4113170038	-0.0489397462	-0.479434
C	 0.0421266965	-0.0852576562	 0.0227548766	 0.42706
O	 1.06228874	-0.6562710227	 0.3079566245	-0.346624
O	-1.1146007068	-0.7166218291	-0.2970527011	-0.244804
C	-1.0838730204	-2.1325706112	-0.2597661018	 0.157263
C	-1.786721002	-2.8158515481	 0.8737989134	-0.279085
C	-2.3922244657	-2.802350133	-0.5177327115	-0.298858
H	 0.7917622668	 1.9042577649	 0.2173834507	 0.148216
H	-0.4443836265	 1.7039749878	-1.0585390029	 0.150563
H	-0.9387511198	 1.7249375645	 0.6317788148	 0.148283
H	-0.1615251481	-2.5493777466	-0.6436408736	 0.122468
H	-1.3631600848	-3.7363707303	 1.2589759373	 0.12334
H	-2.2503430974	-2.1791700351	 1.6185253516	 0.123344
H	-3.2487572394	-2.1574634227	-0.6773523445	 0.127024
H	-2.3948886688	-3.715462386	-1.1019011074	 0.121243
29.5907	50.3452	116.8747	187.457	346.9304	398.836	433.6574	606.8203	627.3499	752.5982	815.3945	837.1468	895.1861	965.8609	1004.8529	1034.4946	1059.3123	1063.8479	1074.2249	1118.298	1178.6155	1192.6193	1236.3897	1265.7982	1385.4455	1401.707	1456.4654	1469.4521	1475.608	1499.865	1830.8579	3057.1372	3121.6922	3140.7262	3143.6443	3169.5999	3196.3506	3223.9449	3238.1089
CC(=O)OC1CC1	CC(=O)OC1CC1	
InChI=1S/C5H8O2/c1-4(6)7-5-2-3-5/h5H,2-3H2,1H3	InChI=1S/C5H8O2/c1-4(6)7-5-2-3-5/h5H,2-3H2,1H3
