15
gdb 3358	4.63787	3.11652	2.36537	1.3699	55.45	-0.2539	0.0748	0.3287	602.7683	0.127117	-345.640969	-345.635252	-345.634308	-345.670726	21.671	
C	-0.0600283596	 1.4884223392	-0.2504869609	-0.253577
C	 1.3979420214	 1.5839013478	 0.2920883546	-0.253584
C	 1.3941845	 0.0520410383	 0.5741683524	 0.092217
O	 1.2958480005	-0.3430341462	 1.9305541458	-0.251356
C	-0.0611632252	-0.1935410893	 2.2874051514	 0.010207
O	-0.8296708145	-0.4821480268	 1.1396783815	-0.25136
C	-0.0653844121	-0.0435279169	 0.031064522	 0.092212
H	-0.8137445023	 2.036664957	 0.3194105958	 0.111
H	-0.1730267522	 1.742945797	-1.3067631202	 0.105985
H	 2.1414869678	 1.8945826142	-0.4453984269	 0.105985
H	 1.5292809716	 2.1900558404	 1.191404643	 0.111001
H	 2.1844927874	-0.5371335745	 0.1068328892	 0.086982
H	-0.3069863588	-0.911677785	 3.0743905684	 0.122342
H	-0.2597738788	 0.8343192401	 2.6403800133	 0.084964
H	-0.2864074052	-0.6989569253	-0.8125460896	 0.086981
78.2084	228.8001	373.7154	433.3461	640.5818	719.2771	737.4826	755.7891	850.099	897.1371	900.3137	954.1154	965.3017	1003.2293	1030.3564	1095.3132	1133.6613	1134.3273	1184.7919	1201.1626	1217.8994	1231.295	1248.9442	1273.0661	1281.9201	1345.0242	1352.1319	1428.3638	1464.601	1480.417	1543.3504	2941.7327	3064.902	3070.1123	3091.4046	3095.0686	3106.8988	3112.825	3130.8808
C1CC2OCOC12	C1C[C@H]2OCO[C@@H]12	
InChI=1S/C5H8O2/c1-2-5-4(1)6-3-7-5/h4-5H,1-3H2	InChI=1S/C5H8O2/c1-2-5-4(1)6-3-7-5/h4-5H,1-3H2/t4-,5+
