17
gdb 1198	6.86594	1.10196	0.99777	1.5386	68.81	-0.2431	0.0613	0.3044	1179.2053	0.145607	-309.700675	-309.691492	-309.690548	-309.735661	31.243	
C	 0.1834672213	 1.1921181692	-0.8736127	-0.497153
C	-0.0063849452	-0.0737463039	-0.1789150227	 0.064025
C	-0.1554900654	-1.1171848367	 0.4037629611	 0.051627
C	-0.3539633919	-2.3808116531	 1.102094483	-0.335195
C	-1.5417072606	-3.2000447678	 0.5660299227	 0.143749
C	-1.3330193055	-3.6718225182	-0.8707334399	-0.402188
O	-1.6714665096	-4.2956220615	 1.4667199941	-0.434632
H	 0.9390748031	 1.1072252798	-1.6625979947	 0.145538
H	-0.7463460161	 1.5333018775	-1.3423722299	 0.145438
H	 0.5121906603	 1.9784738317	-0.1849096814	 0.147229
H	 0.5486446618	-3.0025736822	 1.0385305908	 0.127431
H	-0.5296241418	-2.2020922919	 2.1695885601	 0.133438
H	-2.4396870528	-2.5631873879	 0.6095245244	 0.073561
H	-2.2020835961	-4.2385124283	-1.2248939177	 0.102658
H	-1.1901287538	-2.8198310003	-1.5411358131	 0.13232
H	-0.4525144915	-4.3200205811	-0.9324866582	 0.121186
H	-2.3526516662	-4.8823920052	 1.1241036116	 0.280968
19.2202	71.5423	96.2307	215.3872	247.251	262.4772	272.023	357.789	377.9486	396.5225	464.7433	503.9207	789.1609	838.2589	896.8897	953.0307	1053.4191	1054.4928	1075.2504	1101.6719	1126.9376	1169.5739	1226.14	1272.635	1328.9835	1382.8401	1405.4618	1415.0655	1420.148	1472.8678	1479.0897	1480.0274	1493.3894	1498.7533	2373.4124	2972.8535	3023.5901	3025.3456	3029.0284	3061.3356	3084.9879	3085.3266	3095.7569	3120.7814	3822.3723
CC#CCC(C)O	CC#CC[C@@H](C)O	
InChI=1S/C6H10O/c1-3-4-5-6(2)7/h6-7H,5H2,1-2H3	InChI=1S/C6H10O/c1-3-4-5-6(2)7/h6-7H,5H2,1-2H3/t6-/m1/s1
