13
gdb 1117	4.45898	1.29871	1.11497	0.6587	52.49	-0.1945	0.0443	0.2387	1015.4306	0.099507	-377.830859	-377.821977	-377.821033	-377.866584	28.935	
N	-0.6658494826	 0.8626558366	-0.0041067844	-0.547024
C	-0.0666096506	-0.2947781706	 0.5319223389	 0.383391
N	 1.0794862478	-0.6442114514	-0.1916493853	-0.552903
H	 0.9263372383	-0.622378738	-1.1936604275	 0.2562
H	 1.4687190541	-1.5317660195	 0.0943813955	 0.244133
C	-0.5405162567	-0.9608283569	 1.5940494796	-0.436632
C	-1.6347201758	 0.2995094995	-2.7624817734	 0.593276
O	-0.6607967276	-0.2986638734	-2.9887275703	-0.308049
O	-2.6193390978	 0.8895004059	-2.586691028	-0.294313
H	 0.0125395494	 1.5992896796	-0.1655359232	 0.245421
H	-1.4277044971	 1.2048860139	 0.565919856	 0.24833
H	-0.1302866318	-1.9197482494	 1.882619894	 0.084725
H	-1.3432711597	-0.5570621762	 2.1971046983	 0.083445
27.3708	42.3066	82.9287	92.8941	119.9247	374.9061	381.8446	467.3407	482.5585	583.5454	651.2419	661.8943	690.1356	739.8093	792.7148	826.8524	925.2469	989.2687	1147.4089	1183.2039	1376.2096	1404.4546	1452.838	1630.6823	1641.2157	1738.702	2431.5441	3170.379	3253.7835	3518.2181	3530.3915	3628.3561	3638.505
NC(=[NH2+])CC([O-])=O	NC(=[NH2])[CH2].C(=O)=O	
InChI=1S/C3H6N2O2/c4-2(5)1-3(6)7/h1H2,(H3,4,5)(H,6,7)	InChI=1S/C2H6N2.CO2/c1-2(3)4;2-1-3/h1,3-4H2;
