11
gdb 118	25.23558	2.07322	1.96278	1.2486	46.92	-0.2421	0.0368	0.2789	613.8892	0.089036	-231.111403	-231.104707	-231.103763	-231.142502	20.884	
C	-0.0132505638	 1.4542089373	-0.0093912691	-0.495748
C	-0.0188419646	-0.0005447046	 0.027308287	 0.05669
C	-0.030975014	-1.2033578806	 0.0545335863	 0.09925
C	-0.0224057055	-2.6594703816	 0.0971521433	-0.212127
O	-1.2571224304	-3.162734374	-0.4025761045	-0.409854
H	 0.7956526635	 1.835901338	-0.6420392243	 0.147447
H	-0.9571150473	 1.8378734084	-0.4120147777	 0.153346
H	 0.1165420126	 1.8797368918	 0.9917763014	 0.147447
H	 0.8273109114	-3.0335583063	-0.4976264596	 0.112832
H	 0.1486375892	-2.9897636084	 1.1351177457	 0.112832
H	-1.2123139611	-4.12334203	-0.3581831386	 0.287884
18.7098	134.7235	190.4078	238.3308	332.0847	375.3572	531.9039	747.9043	1025.5018	1044.3399	1051.7242	1058.0663	1157.1873	1246.8216	1258.1081	1414.3029	1460.966	1476.7909	1479.131	1504.869	2379.8939	2958.578	2975.2578	3027.3037	3087.5337	3089.8473	3816.4447	18.7138	134.7236	190.408	238.3309	332.0842	375.3554	531.9035	747.9043	1025.5016	1044.3399	1051.7241	1058.0661	1157.1873	1246.8215	1258.1081	1414.3028	1460.9659	1476.7908	1479.1308	1504.8688	2379.8937	2958.578	2975.2578	3027.3037	3087.5337	3089.8473	3816.4446
CC#CCO	CC#CCO	
InChI=1S/C4H6O/c1-2-3-4-5/h5H,4H2,1H3	InChI=1S/C4H6O/c1-2-3-4-5/h5H,4H2,1H3
