10
gdb 1201	11.40753	1.11134	1.01268	3.7399	66.57	-0.2572	-0.0595	0.1977	1040.5382	0.064847	-322.150234	-322.142692	-322.141748	-322.182151	25.542	
N	-0.0329569565	 1.3466308861	 0.0088129322	-0.520504
C	 0.0608230017	-0.0128890697	 0.0011830779	 0.222201
O	 1.1136266951	-0.6199709529	-0.0113501999	-0.323824
C	-1.2276953007	-0.6928089714	 0.0098693219	 0.426857
C	-2.2583831185	-1.3291968558	 0.0163531662	-0.308244
C	-3.4212342846	-2.031907209	 0.0237382987	 0.293542
C	-4.4550647332	-2.6555738083	 0.030307535	-0.535429
H	 0.818368183	 1.8843223013	 0.0037224714	 0.271009
H	-0.9207828949	 1.8172667327	 0.0194092012	 0.271049
H	-5.3639660316	-3.205168343	 0.0360786655	 0.203342
89.3586	109.4767	118.1493	239.5459	301.5167	417.3265	510.2663	544.9985	575.7233	588.2564	607.185	624.8912	681.9981	776.5697	1083.7717	1089.2473	1352.2339	1608.6163	1771.1222	2178.5689	2347.6112	3501.7461	3602.1104	3744.2436
NC(=O)C#CC#C	NC(=O)C#CC#C	
InChI=1S/C5H3NO/c1-2-3-4-5(6)7/h1H,(H2,6,7)	InChI=1S/C5H3NO/c1-2-3-4-5(6)7/h1H,(H2,6,7)
