15
gdb 4846	5.43394	1.32209	1.13616	2.0174	63.84	-0.189	0.0529	0.2419	1030.4213	0.120638	-396.009195	-396.001474	-396.00053	-396.041576	28.2	
C	 0.4738676338	 1.0178217199	-0.5265494853	-0.325975
N	-0.3519463281	 0.1529277675	 0.3266750255	-0.39445
C	 0.3302115379	-0.5396865816	 1.3377049144	 0.276046
C	 0.5805656973	-0.3174244046	 2.6621666066	-0.157915
N	 1.2799981083	-1.380668145	 3.2227619559	-0.361199
C	 1.45310493	-2.2138156456	 2.235637049	 0.444265
O	 2.0944956324	-3.3961796641	 2.2791918327	-0.428433
N	 0.9133185247	-1.7825066239	 1.0682818307	-0.329038
H	 1.2187684221	 0.4094774723	-1.0478724747	 0.126596
H	-0.1626701993	 1.4878781197	-1.2817575996	 0.120093
H	 1.0086629882	 1.8028690048	 0.0289571391	 0.112928
H	-1.1213191836	 0.6772172978	 0.7231447434	 0.236778
H	 0.2945828264	 0.5381793184	 3.254794466	 0.098924
H	 2.398864654	-3.4980374539	 3.1899225357	 0.31137
H	 0.8515098159	-2.2918702118	 0.2032074207	 0.27001
57.7619	137.4654	170.6334	271.4491	329.1632	404.7444	435.1955	467.3004	486.3545	617.0058	661.122	716.0221	731.3491	769.4666	817.0434	993.1967	1034.5854	1063.8504	1138.3965	1147.0765	1159.0365	1206.8179	1266.577	1286.0413	1375.8791	1454.1926	1471.7756	1488.0516	1512.7397	1563.7303	1612.317	1638.8611	2989.523	3077.2409	3114.0971	3248.1642	3563.9729	3673.4364	3802.4649
CNC1=CN=C(O)N1	CNc1cnc(O)[nH]1	
InChI=1S/C4H7N3O/c1-5-3-2-6-4(8)7-3/h2,5H,1H3,(H2,6,7,8)	InChI=1S/C4H7N3O/c1-5-3-2-6-4(8)7-3/h2,5H,1H3,(H2,6,7,8)
