15
gdb 4881	5.03551	1.34547	1.13166	5.2215	63.25	-0.2132	0.0266	0.2398	1036.0259	0.119436	-399.862269	-399.854707	-399.853763	-399.894467	27.492	
C	 0.0158224337	 1.5553033782	 0.1920101509	-0.373423
C	-0.0133777546	 0.0437868504	-0.0959968308	-0.303482
C	-1.3854253457	-0.5391080344	-0.0998627068	 0.305012
C	-2.1069273352	-1.1100441201	-1.0745442776	-0.122168
O	-3.3459472486	-1.4937365799	-0.6008668537	-0.208176
C	-3.4244641386	-1.1541641813	 0.7365899866	 0.485151
O	-4.3751296037	-1.3554881029	 1.4408681506	-0.402108
N	-2.2126814065	-0.5665971088	 1.0303728593	-0.421994
H	 1.0440181447	 1.927699757	 0.1816076763	 0.124834
H	-0.5582317258	 2.1055110095	-0.5588557086	 0.132623
H	-0.4113088843	 1.787035644	 1.1730406226	 0.118209
H	 0.4394578422	-0.1567842976	-1.0721385203	 0.124031
H	 0.6062014758	-0.4801822374	 0.644386318	 0.118398
H	-1.8960235131	-1.3141368822	-2.1094950508	 0.149698
H	-1.9955372406	-0.2266826546	 1.9503827643	 0.273394
76.9461	123.9614	194.3667	223.8253	312.348	394.6661	428.5595	525.1169	598.7358	658.008	717.4592	758.829	771.4178	789.1417	923.2299	956.1661	1016.4178	1067.5018	1092.4973	1099.4643	1181.7845	1239.9516	1276.4633	1340.4046	1365.5952	1411.7146	1427.2179	1478.6804	1497.5366	1505.2006	1710.9504	1897.9623	3018.6779	3041.5883	3078.3762	3111.942	3121.9017	3296.6035	3695.2091
CCC1=COC(=O)N1	CCc1coc(=O)[nH]1	
InChI=1S/C5H7NO2/c1-2-4-3-8-5(7)6-4/h3H,2H2,1H3,(H,6,7)	InChI=1S/C5H7NO2/c1-2-4-3-8-5(7)6-4/h3H,2H2,1H3,(H,6,7)
