19
gdb 1576	4.23846	1.5069	1.273	2.262	64.62	-0.2529	0.0811	0.334	1013.1638	0.169573	-348.051118	-348.04206	-348.041116	-348.08514	31.666	
C	 0.1385458944	 1.4981634476	-0.1149812496	-0.383284
C	-0.0982691515	-0.002021898	-0.1772107593	-0.035652
O	 0.7530419666	-0.5449258213	-1.1678294649	-0.274769
C	 0.7702969461	-1.9674397903	-1.2728766369	 0.122408
C	-0.5000783262	-2.5197194879	-1.9229007251	-0.39774
C	 2.0225077347	-2.2680290127	-2.1013243921	-0.059103
O	 1.9742059614	-1.6319337589	-3.3640778538	-0.422965
H	 1.1808694916	 1.7131292045	 0.1370092081	 0.125819
H	-0.0830976939	 1.9616852871	-1.0807371996	 0.125672
H	-0.5051158167	 1.9544955805	 0.6429556537	 0.116233
H	 0.1181586016	-0.4684870347	 0.7982239574	 0.086946
H	-1.1544053168	-0.2086371959	-0.4075651304	 0.0927
H	 0.8976446603	-2.4054774535	-0.2685205267	 0.061303
H	-0.5824256468	-2.1508344313	-2.9481625514	 0.134432
H	-0.4613552112	-3.6134917625	-1.9517502764	 0.115119
H	-1.3983833836	-2.2350025205	-1.3688148447	 0.113126
H	 2.9073899508	-1.9511158346	-1.5280601059	 0.087258
H	 2.1038730625	-3.3443056048	-2.2854738022	 0.102771
H	 1.7692616766	-0.7076729228	-3.1774072305	 0.289728
44.9779	96.9394	109.3875	197.2171	210.3819	246.3563	293.8188	334.1802	397.7683	451.8988	482.8836	650.8576	812.2374	822.7613	882.4342	920.3738	973.7026	1007.2367	1075.9048	1112.4281	1138.4372	1147.4296	1165.3993	1188.3117	1244.8655	1296.6359	1341.0514	1361.3546	1384.2165	1400.9971	1410.7342	1430.8677	1439.6847	1483.1545	1489.2051	1495.379	1500.7746	1501.8057	1530.973	2960.2178	2967.6047	2988.9833	3000.5759	3044.1471	3045.4955	3077.9112	3111.5907	3118.5844	3120.8475	3133.0051	3789.9643
CCOC(C)CO	CCO[C@@H](C)CO	
InChI=1S/C5H12O2/c1-3-7-5(2)4-6/h5-6H,3-4H2,1-2H3	InChI=1S/C5H12O2/c1-3-7-5(2)4-6/h5-6H,3-4H2,1-2H3/t5-/m0/s1
