11
gdb 603	6.69577	2.91901	2.30451	3.7031	47.35	-0.2985	-0.0034	0.2951	546.1016	0.083973	-285.281493	-285.275526	-285.274582	-285.310917	20.526	
C	-0.0749202702	 1.531291149	-0.048888057	-0.427901
C	-0.0310611609	 0.0340298045	 0.0822065221	 0.093718
O	 1.2191650578	-0.6141073064	-0.152405723	-0.227616
C	 0.6875756551	-0.6670322532	 1.1716644058	-0.098177
C	 1.4041673246	 0.0705360797	 2.1902833646	 0.300072
N	 1.9607433405	 0.6474530073	 3.0229964762	-0.323884
H	 0.7821520469	 1.9967683965	 0.4425503041	 0.155103
H	-0.066977306	 1.813081667	-1.106305193	 0.141212
H	-0.9936525842	 1.9232981945	 0.3989923285	 0.13631
H	-0.8839816337	-0.5056034292	-0.3325468623	 0.11095
H	 0.3412781501	-1.6471411699	 1.494850584	 0.140216
146.8786	177.7211	231.6019	353.4341	409.2811	572.9911	603.4011	784.1224	815.6302	926.7891	985.2679	1047.283	1080.6581	1162.1886	1170.899	1282.5004	1373.6915	1415.6845	1446.275	1482.8996	1498.1745	2360.2439	3045.7616	3100.8422	3112.5725	3132.7749	3140.1396
CC1OC1C#N	C[C@H]1O[C@H]1C#N	
InChI=1S/C4H5NO/c1-3-4(2-5)6-3/h3-4H,1H3	InChI=1S/C4H5NO/c1-3-4(2-5)6-3/h3-4H,1H3/t3-,4+/m1/s1
