15
gdb 1622	3.83134	2.09958	1.4405	3.9686	57.69	-0.2705	0.0278	0.2983	825.7495	0.124257	-341.839596	-341.831335	-341.83039	-341.871873	29.255	
C	 0.0450502011	 1.5643576871	 0.0474546608	-0.410861
C	 0.0431963422	 0.042750354	-0.0551201257	 0.154405
O	 0.8305907536	-0.5681482912	 0.9495799584	-0.416745
C	-1.4017623267	-0.5262672415	-0.0379030122	-0.158748
N	-2.1631506805	-0.0317382588	-1.186732709	-0.498401
C	-1.3776595726	-2.0026233453	 0.0459908761	 0.27162
N	-1.4207503512	-3.1579363743	 0.0482589563	-0.324234
H	 1.0694968906	 1.9397522804	-0.0145316815	 0.129757
H	-0.5548237769	 2.0096854552	-0.7483720055	 0.146214
H	-0.3802933271	 1.8843793847	 1.0078777983	 0.106942
H	 0.5060801957	-0.2645681392	-1.0012562111	 0.102634
H	 0.5778728502	-0.1950269905	 1.8016073137	 0.283659
H	-1.8937255621	-0.1555390332	 0.871143281	 0.119972
H	-1.8089724387	-0.4575151583	-2.0394153841	 0.245085
H	-3.1347805378	-0.316389929	-1.1103098855	 0.2487
71.2944	150.448	217.0272	246.9101	263.4117	276.4079	298.7648	364.622	416.5135	475.0225	554.1559	605.693	828.6166	869.0744	913.6652	995.7249	1034.9248	1089.4265	1125.4116	1147.3377	1193.3696	1293.1958	1318.3646	1372.8176	1388.058	1400.9642	1420.5688	1488.7758	1497.6858	1664.3888	2347.9412	3023.7057	3025.5987	3045.9188	3106.4132	3144.5389	3493.8867	3572.678	3799.2516
CC(O)C(N)C#N	C[C@@H](O)[C@@H](N)C#N	
InChI=1S/C4H8N2O/c1-3(7)4(6)2-5/h3-4,7H,6H2,1H3	InChI=1S/C4H8N2O/c1-3(7)4(6)2-5/h3-4,7H,6H2,1H3/t3-,4+/m1/s1
