19
gdb 2729	15.43624	0.78806	0.76786	2.0048	66.16	-0.2498	0.087	0.3367	1496.206	0.16934	-348.03123	-348.021914	-348.02097	-348.065825	30.719	
C	-0.0356950392	 1.3568229505	 0.0438865077	-0.227706
O	 0.0049330371	-0.0480727652	 0.0065438674	-0.22874
C	 0.652063741	-0.5481672384	-1.142622152	-0.05018
C	 0.6384164767	-2.0691066498	-1.0786975343	-0.211012
C	 1.3177450466	-2.7092415752	-2.2813069261	-0.05018
O	 1.2559076459	-4.1106777824	-2.1343116592	-0.228741
C	 1.8596918639	-4.7998840973	-3.2007153598	-0.227706
H	 0.9747395303	 1.7969654634	 0.0507086638	 0.101517
H	-0.5827977014	 1.7749962617	-0.816673685	 0.101516
H	-0.5515579527	 1.6458429215	 0.9628647553	 0.126759
H	 0.1403843274	-0.193013528	-2.0550949132	 0.082744
H	 1.6891527613	-0.1706750326	-1.1926595587	 0.082736
H	 1.1411000208	-2.3967771827	-0.1628762294	 0.116862
H	-0.3973818954	-2.4190716075	-1.0201163502	 0.11686
H	 0.8206535447	-2.400375702	-3.2183555641	 0.082735
H	 2.3691602691	-2.3782052404	-2.3554458191	 0.082745
H	 1.3719416275	-4.5757603678	-4.1633265882	 0.101518
H	 2.929583344	-4.5529513141	-3.2961539182	 0.101514
H	 1.7622002424	-5.8691570034	-2.9974453567	 0.126759
59.8817	82.22	109.968	119.5807	141.5411	237.7418	238.2411	273.7985	324.2965	436.8708	532.057	780.6424	892.9456	961.9918	1003.2803	1064.2391	1088.202	1158.0306	1165.2388	1175.77	1180.8277	1201.1597	1216.5129	1239.2355	1240.1645	1303.1249	1303.4041	1305.1845	1424.9088	1435.546	1482.0721	1482.3677	1485.2657	1485.3052	1497.774	1503.3911	1508.0032	1530.3783	1538.7126	2933.4337	2941.3077	2957.4936	2965.1282	2965.3511	2966.7479	3006.47	3006.6148	3053.6301	3099.8297	3112.7542	3112.9032
COCCCOC	COCCCOC	
InChI=1S/C5H12O2/c1-6-4-3-5-7-2/h3-5H2,1-2H3	InChI=1S/C5H12O2/c1-6-4-3-5-7-2/h3-5H2,1-2H3
