17
gdb 2106	4.80044	2.36781	1.73184	1.816	60.29	-0.2584	0.0927	0.351	749.913	0.14995	-346.864282	-346.85767	-346.856726	-346.894499	25.304	
C	-0.0078694138	 1.5259993654	 0.0668158483	-0.402178
C	 0.0341395169	 0.0094738803	-0.0117657239	 0.142561
C	 0.7338561559	-0.5273558524	-1.2676283735	-0.202976
C	 0.8990474887	-2.0445337243	-1.1456850374	-0.091294
O	 1.5319377432	-2.3785864621	 0.0823470792	-0.232569
C	 0.8165749495	-1.8586387945	 1.1709613994	 0.019472
O	 0.7233682627	-0.4601596966	 1.149341646	-0.250175
H	 1.0066391706	 1.9359085538	 0.056168721	 0.12658
H	-0.5595773939	 1.938695267	-0.7833439336	 0.113725
H	-0.4975613334	 1.8466067493	 0.9903043543	 0.124789
H	-0.9968008028	-0.3890786958	 0.0115482811	 0.061924
H	 0.1569911384	-0.2764352155	-2.1651502374	 0.095503
H	 1.7208914346	-0.0591294132	-1.3535386176	 0.110352
H	-0.0872840745	-2.5370814126	-1.2033357164	 0.086743
H	 1.5270051803	-2.4517800489	-1.9422763916	 0.111435
H	-0.1997803823	-2.3004189786	 1.1933529591	 0.070215
H	 1.3656671099	-2.1303832611	 2.0748337131	 0.115893
158.6297	218.2116	261.6426	305.9641	373.8696	439.4642	490.0873	509.2777	674.9646	805.521	872.5239	883.68	959.073	978.4767	1001.9734	1062.8712	1075.8603	1123.0918	1149.4046	1189.3038	1216.1794	1239.0343	1274.5961	1319.3486	1342.2198	1376.5803	1395.2722	1402.1161	1413.7633	1447.919	1466.725	1483.4255	1494.8026	1501.8412	1508.3117	2903.7631	2935.1056	2959.327	3035.6597	3043.047	3085.039	3093.7198	3110.7485	3116.8723	3121.3202
CC1CCOCO1	C[C@H]1CCOCO1	
InChI=1S/C5H10O2/c1-5-2-3-6-4-7-5/h5H,2-4H2,1H3	InChI=1S/C5H10O2/c1-5-2-3-6-4-7-5/h5H,2-4H2,1H3/t5-/m0/s1
