14
gdb 3713	6.9613	1.94664	1.66785	3.0629	59.36	-0.2518	-0.0069	0.2449	754.7058	0.114351	-324.581906	-324.575436	-324.574491	-324.612826	23.049	
C	 0.0221581847	 1.5574407303	 0.1837785839	-0.375145
C	-0.0343550486	 0.0452450214	-0.0947872	-0.293881
C	-1.4268220249	-0.487103677	-0.1522188534	 0.439387
C	-2.1794410608	-1.053833146	-1.1358201896	-0.340061
C	-3.4224583819	-1.3113737484	-0.5000231904	 0.03704
N	-3.4267148585	-0.9357817507	 0.7543804235	-0.14168
O	-2.154674007	-0.4098560606	 0.9786031183	-0.210242
H	 1.0603661339	 1.897263659	 0.2339690104	 0.119348
H	-0.485185334	 2.1198637579	-0.6055219552	 0.126382
H	-0.4637488486	 1.7945446531	 1.1335430943	 0.142283
H	 0.4564622262	-0.1855697771	-1.044945759	 0.119495
H	 0.5182046029	-0.4903143484	 0.6867650223	 0.130176
H	-1.8914290785	-1.2571564048	-2.1535728268	 0.116449
H	-4.3150210149	-1.7592821086	-0.9141931083	 0.130449
54.3431	158.1612	208.5167	329.1616	394.6769	632.1971	648.8989	716.3583	787.6531	810.0537	917.512	919.7858	944.6221	960.4387	1020.925	1054.062	1072.7059	1093.4514	1212.9816	1246.4965	1291.8535	1348.5365	1387.4211	1409.6343	1478.1217	1496.5582	1503.3801	1518.844	1635.2366	3037.6425	3046.6272	3087.2935	3118.6	3129.7443	3241.798	3279.79
CCC1=CC=NO1	CCc1ccno1	
InChI=1S/C5H7NO/c1-2-5-3-4-6-7-5/h3-4H,2H2,1H3	InChI=1S/C5H7NO/c1-2-5-3-4-6-7-5/h3-4H,2H2,1H3
