17
gdb 3407	3.78666	2.70222	2.17367	1.3569	63.52	-0.2438	0.0723	0.3161	692.4021	0.148883	-309.684862	-309.678014	-309.67707	-309.715105	26.649	
C	-0.1484861774	 1.5398930364	-0.1628270252	-0.412691
C	 0.1090885681	 0.0390105636	-0.0764081042	 0.048005
C	 1.2689779181	-0.6030597262	-0.9100230414	-0.249554
C	 1.8040747049	-1.273898441	 0.3621964314	-0.087981
C	 2.1731284869	-0.2539855816	 1.3768784585	 0.11484
O	 2.7910734019	 0.9393448777	 0.9749754986	-0.420682
C	 0.7113614487	-0.5604816617	 1.2062430656	-0.136745
H	 0.7746393542	 2.1059702909	-0.0207045546	 0.119486
H	-0.5616115657	 1.808457974	-1.1418103459	 0.110009
H	-0.8706621163	 1.8595370588	 0.5976208291	 0.105665
H	-0.8184530847	-0.4970088391	-0.3035652269	 0.072976
H	 0.9115757456	-1.3125460702	-1.6587291675	 0.09631
H	 1.9616059788	 0.0977177424	-1.3829498235	 0.110431
H	 2.1610735557	-2.295260268	 0.4238688881	 0.084704
H	 2.5929861696	-0.6804643903	 2.2897014507	 0.084064
H	 2.5412280711	 1.6263658296	 1.601687574	 0.285061
H	 0.1259962806	-0.9460492954	 2.0349595633	 0.076101
163.3141	217.1229	231.9396	293.9615	334.7369	388.858	493.8369	619.0435	693.3612	729.2823	795.7882	842.1335	870.204	942.6936	980.5357	992.8906	999.7678	1017.2056	1076.4543	1094.8673	1121.0627	1142.9049	1194.7237	1215.6576	1248.6028	1268.7017	1296.6758	1306.2841	1352.5892	1377.1472	1403.9214	1457.2136	1488.3285	1494.0794	1510.1157	3027.723	3042.0995	3065.426	3085.0665	3087.1227	3118.0923	3126.8002	3156.0977	3178.9172	3808.8429
CC1CC2C(O)C12	C[C@H]1C[C@H]2[C@@H](O)[C@@H]12	
InChI=1S/C6H10O/c1-3-2-4-5(3)6(4)7/h3-7H,2H2,1H3	InChI=1S/C6H10O/c1-3-2-4-5(3)6(4)7/h3-7H,2H2,1H3/t3-,4+,5-,6+/m0/s1
