14
gdb 2168	3.80515	3.0647	1.79907	3.7646	53.56	-0.2508	0.0249	0.2757	677.2732	0.115455	-361.758032	-361.751625	-361.75068	-361.788262	23.825	
O	 0.079905918	 1.382710352	 0.2420391234	-0.441181
C	 0.0043062989	-0.0039061816	 0.0461394066	 0.057258
C	-1.4224521907	-0.5514856828	-0.0610401544	-0.235675
C	-1.2583478042	-1.7925044001	-0.9706019496	-0.174549
N	-0.1001888795	-1.4406589275	-1.7849825731	-0.309748
C	 0.627161278	-0.4023285715	-1.2985386775	 0.388451
O	 1.5809433073	 0.1545031465	-1.8053433005	-0.399256
H	 0.8458113338	 1.6707637512	-0.2775965515	 0.292883
H	 0.5581224953	-0.5444035581	 0.8348651479	 0.088085
H	-1.8780978191	-0.7952569511	 0.8998312867	 0.114252
H	-2.0386008151	 0.2036042081	-0.5583317777	 0.126822
H	-1.0728462007	-2.7019689254	-0.3832404444	 0.114443
H	-2.1387002744	-1.9721177813	-1.5944604446	 0.121432
H	 0.1519416425	-1.9115256283	-2.6391990612	 0.256782
123.1221	182.8294	264.4709	390.5625	425.3843	487.0738	529.3915	582.0278	687.4261	724.2843	819.1483	887.6068	939.5268	999.4602	1056.716	1102.1268	1157.551	1190.2415	1222.7554	1271.8633	1272.8925	1299.9712	1350.1628	1386.9462	1429.7397	1449.1947	1495.9341	1534.2484	1826.9746	2941.3963	3012.0639	3066.6569	3080.3427	3128.6979	3643.2224	3716.7176
OC1CCNC1=O	O[C@H]1CCNC1=O	
InChI=1S/C4H7NO2/c6-3-1-2-5-4(3)7/h3,6H,1-2H2,(H,5,7)	InChI=1S/C4H7NO2/c6-3-1-2-5-4(3)7/h3,6H,1-2H2,(H,5,7)/t3-/m0/s1
