8
gdb 3924	9.0057	2.09229	1.69783	1.4031	42.8	-0.2995	-0.1159	0.1836	631.3044	0.042335	-391.370332	-391.364933	-391.363989	-391.399878	17.853	
O	-0.0807852401	-0.0133068121	-0.0005211556	-0.218204
C	 0.0049251354	 1.1847578778	 0.0068730434	 0.112958
C	 1.2976773266	 1.9183417834	-0.0013578669	 0.323701
N	 2.4923462104	 1.3868910893	-0.0173180642	-0.101644
O	 3.3300984059	 2.4240920213	-0.0183948447	-0.122142
N	 2.5770863637	 3.6251394848	-0.0032565721	 0.057758
N	 1.3695720736	 3.300473287	 0.0068755981	-0.17843
H	-0.8728208155	 1.8593085785	 0.020425192	 0.126002
119.6505	208.9746	270.6658	484.4786	579.8161	679.2657	731.187	788.4875	986.1991	1035.5491	1054.3445	1135.6931	1258.7714	1423.3196	1489.5034	1551.7229	1826.9846	2958.0992
O=CC1=NON=N1	O=Cc1nonn1	
InChI=1S/C2HN3O2/c6-1-2-3-5-7-4-2/h1H	InChI=1S/C2HN3O2/c6-1-2-3-5-7-4-2/h1H
