14
gdb 476	4.14245	3.72097	2.84576	1.9714	49.27	-0.2301	0.0537	0.2838	539.3304	0.118633	-307.540766	-307.533965	-307.53302	-307.570981	24.471	
C	-0.0411586956	 1.5598244299	 0.0070022101	-0.393391
C	 0.0310910077	 0.0494787905	 0.0271134538	-0.077522
C	 1.3313028551	-0.6839927023	-0.2644496334	 0.08926
O	 2.5128735111	 0.0355298528	-0.4431876106	-0.429815
C	 0.7421455803	-0.7022037151	 1.1278710004	 0.025502
O	 1.4220622436	 0.0881040487	 2.076067509	-0.423996
H	 0.9154301942	 2.0111786032	 0.2740162032	 0.123476
H	-0.3057487044	 1.9132306178	-0.9946672416	 0.118861
H	-0.7956759007	 1.9303537638	 0.7082212237	 0.117926
H	-0.8644395093	-0.4510587857	-0.3335309651	 0.086151
H	 1.3072710386	-1.5794520797	-0.878299964	 0.096095
H	 2.7131150849	 0.4342809193	 0.4152589951	 0.282919
H	 0.2865690486	-1.6043210588	 1.5312407232	 0.088564
H	 2.0439562757	-0.4838652644	 2.5394501063	 0.295971
97.1351	182.7978	218.5631	274.3783	302.6626	492.8383	506.9057	612.2195	649.4011	738.206	784.6534	893.9733	975.3679	1004.1173	1074.0489	1095.6562	1144.9216	1152.0196	1162.6132	1236.3212	1267.9455	1327.1265	1364.5225	1412.8928	1419.9269	1469.3391	1489.499	1502.9106	3043.0228	3100.2236	3114.9855	3128.8806	3142.4708	3153.9536	3735.771	3801.679
CC1C(O)C1O	C[C@H]1[C@@H](O)[C@H]1O	
InChI=1S/C4H8O2/c1-2-3(5)4(2)6/h2-6H,1H3	InChI=1S/C4H8O2/c1-2-3(5)4(2)6/h2-6H,1H3/t2-,3+,4-
