15
gdb 2682	10.89808	0.80508	0.7809	1.8587	62.67	-0.2452	0.0351	0.2802	1403.4063	0.122841	-345.608456	-345.599538	-345.598593	-345.643629	29.172	
O	-0.0429265252	 1.3906944505	-0.1429128119	-0.415574
C	-0.0447172816	-0.0195017306	-0.2863215877	-0.064146
C	-1.2926922724	-0.5393176493	 0.4357777235	-0.323732
C	-1.415583318	-1.9890869908	 0.3722814998	 0.033727
C	-1.4959653909	-3.1879626913	 0.3006668798	 0.112197
C	-1.5982791472	-4.6400972084	 0.2449594043	-0.215129
O	-2.0029597442	-5.0445141898	-1.0586431633	-0.409764
H	 0.7214951208	 1.7406994726	-0.6091332311	 0.289105
H	-0.0821819913	-0.3230996049	-1.3428473772	 0.101986
H	 0.8516747867	-0.4763489171	 0.1591323225	 0.09683
H	-1.2527658435	-0.2063313424	 1.4802625699	 0.137469
H	-2.1747915591	-0.0606382415	-0.0065949713	 0.139716
H	-0.6240505016	-5.0817504685	 0.5122728755	 0.113431
H	-2.3190305262	-4.9787597908	 1.0074038113	 0.115488
H	-2.0664713563	-6.0051094778	-1.052569504	 0.288395
17.0971	79.2807	95.824	156.4493	228.795	239.8882	281.6677	339.5464	375.8699	469.4173	575.6591	788.4092	792.6208	1000.1161	1028.4332	1046.7272	1080.4834	1087.2206	1153.8322	1221.183	1238.7041	1246.9831	1257.1464	1304.1671	1333.4968	1454.2092	1460.8251	1474.982	1503.6925	1527.7887	2374.5443	2959.7421	2976.9799	2984.0372	3015.5194	3030.3719	3067.7864	3816.2887	3835.3775
OCCC#CCO	OCCC#CCO	
InChI=1S/C5H8O2/c6-4-2-1-3-5-7/h6-7H,2,4-5H2	InChI=1S/C5H8O2/c6-4-2-1-3-5-7/h6-7H,2,4-5H2
