18
gdb 1270	6.76899	1.13746	1.04786	2.7971	69.8	-0.2473	0.0246	0.2719	1172.7453	0.15739	-326.978724	-326.969665	-326.968721	-327.012811	30.839	
C	 0.0049149341	 1.3752151727	-0.0184233348	-0.249083
O	-0.0115404608	-0.0451191498	 0.0352252789	-0.19382
C	 0.5803054606	-0.6729176693	-1.0018727347	 0.124223
N	 0.6237364912	-1.9277792241	-1.055245392	-0.210816
C	 1.2792060644	-2.5361304671	-2.2057929728	 0.060828
C	 2.4678637858	-3.3731290778	-1.7182269234	-0.367108
C	 0.2611115853	-3.3975714883	-2.9624649062	-0.367117
H	 1.029593346	 1.7671749927	-0.0187781497	 0.12576
H	-0.5249868088	 1.7518874223	-0.9021178673	 0.125732
H	-0.508394127	 1.7228828469	 0.8788838385	 0.145784
H	 1.0021871486	 0.0042684639	-1.7626392631	 0.06891
H	 1.6608837362	-1.7625287778	-2.8979149485	 0.052787
H	 2.1267017823	-4.1443494653	-1.0207545039	 0.125482
H	 2.9693601845	-3.8609030467	-2.5604541134	 0.106325
H	 3.1981831589	-2.7466487583	-1.1975671889	 0.110152
H	-0.5728110427	-2.7884353538	-3.3236546072	 0.110165
H	 0.7303576502	-3.8856382065	-3.8229128568	 0.106318
H	-0.1460745089	-4.1695794137	-2.3022801846	 0.125478
46.7845	78.3661	148.2719	163.7023	212.9922	244.2156	253.6131	315.4594	385.8602	465.5358	492.6278	582.8647	851.7235	929.5478	954.601	970.6023	988.2471	1055.7581	1135.2049	1153.2756	1177.545	1184.7902	1196.5948	1277.1903	1354.5327	1364.4568	1394.9079	1413.8919	1419.6333	1480.1339	1484.6772	1487.871	1494.0857	1495.116	1501.6719	1511.3416	1773.128	2920.4343	2979.3871	3012.9196	3033.5204	3037.9194	3073.4619	3106.3492	3110.199	3111.6142	3115.959	3143.4309
COC=NC(C)C	COC=NC(C)C	
InChI=1S/C5H11NO/c1-5(2)6-4-7-3/h4-5H,1-3H3	InChI=1S/C5H11NO/c1-5(2)6-4-7-3/h4-5H,1-3H3
