15
gdb 3297	5.77597	2.11839	1.87636	0.8713	66.18	-0.2541	0.0496	0.3037	713.3266	0.125253	-271.316922	-271.310553	-271.309609	-271.346906	24.758	
C	 0.0031033365	-1.2494153616	-0.0874765979	-0.475755
C	 0.01087547	-0.0476292521	-0.0316478134	 0.335001
C	 0.0288099764	 1.4013418761	 0.0597549647	-0.173276
C	-0.2142065312	 2.0722167875	 1.4689268355	-0.244712
C	 1.1367324744	 2.7825318989	 1.3431195405	-0.038883
C	 2.2377489072	 1.7723220557	 1.1811677335	-0.274463
C	 1.3939926203	 2.1203304648	-0.0100921976	-0.045739
H	-0.0057202686	-2.3094478748	-0.1462393121	 0.193345
H	-0.6665064504	 1.8244674455	-0.6710692354	 0.10383
H	-1.0733346628	 2.7453074905	 1.4476455437	 0.107777
H	-0.3203504087	 1.3842795408	 2.3122096491	 0.10659
H	 1.3345882254	 3.8033836497	 1.6453545964	 0.087115
H	 3.2439523798	 2.1784051066	 1.1631049011	 0.111659
H	 2.1599050662	 0.7894979734	 1.6399190924	 0.11806
H	 1.8160017954	 2.5355916691	-0.9169010004	 0.08945
122.1673	169.7502	294.779	395.3691	497.0394	556.029	618.2395	624.5175	671.2779	781.4457	798.6681	813.6023	929.1436	949.9394	963.3261	1007.4477	1025.8431	1054.6714	1063.7789	1083.646	1097.5933	1143.0923	1200.2735	1219.5108	1259.3277	1294.7151	1338.1254	1364.8234	1481.4577	1497.782	2229.445	3059.2321	3061.9622	3112.4439	3119.486	3181.2656	3189.1052	3205.4745	3504.09
C#CC1CC2CC12	C#C[C@H]1C[C@H]2C[C@@H]12	
InChI=1S/C7H8/c1-2-5-3-6-4-7(5)6/h1,5-7H,3-4H2	InChI=1S/C7H8/c1-2-5-3-6-4-7(5)6/h1,5-7H,3-4H2/t5-,6-,7-/m0/s1
