14
gdb 2649	10.51744	0.95471	0.94442	4.0123	64.08	-0.2463	0.0259	0.2722	1211.6283	0.111948	-324.577279	-324.568791	-324.567847	-324.612808	27.213	
C	-0.0282047072	 1.4214630378	-0.1676978191	-0.496588
C	-0.0080923163	-0.0196083055	 0.0368368987	 0.068087
C	 0.0202170239	-1.2125583038	 0.1950550117	 0.04532
C	 0.0386710318	-2.6550957767	 0.4109867258	-0.284051
N	-1.2903986273	-3.2487693583	 0.2915999445	-0.269006
C	-1.517763263	-4.3780413859	-0.4290415648	 0.161047
O	-0.663229167	-5.0345606714	-0.9857145603	-0.322321
H	 0.824914523	 1.7457658125	-0.7734521211	 0.154271
H	-0.9400806724	 1.7338292924	-0.68822278	 0.151383
H	 0.0139338538	 1.9624414889	 0.7838738564	 0.149635
H	 0.6641663717	-3.1645523934	-0.3291382779	 0.172712
H	 0.4694420131	-2.8802579759	 1.396576941	 0.137831
H	-2.0732164171	-2.7474006331	 0.6794293427	 0.25331
H	-2.593599617	-4.6417538976	-0.4479410076	 0.078368
15.3023	25.5739	102.5197	194.1889	241.1813	253.112	330.1088	374.1285	509.6957	523.3715	718.2365	827.5478	971.9763	1031.7096	1036.2425	1053.4276	1056.6888	1170.7507	1204.4441	1255.9247	1375.4146	1414.9478	1426.0655	1476.8058	1478.6713	1491.2722	1518.3082	1803.917	2376.5273	2939.6729	3006.6433	3028.904	3081.338	3090.4245	3091.3348	3643.1632
CC#CCNC=O	CC#CCNC=O	
InChI=1S/C5H7NO/c1-2-3-4-6-5-7/h5H,4H2,1H3,(H,6,7)	InChI=1S/C5H7NO/c1-2-3-4-6-5-7/h5H,4H2,1H3,(H,6,7)
