14
gdb 3732	7.15367	2.02548	1.74801	3.2434	58.28	-0.2607	0.0109	0.2717	727.0316	0.11617	-320.786981	-320.780664	-320.77972	-320.817692	22.234	
C	-0.1581641071	 1.5405952627	 0.1035629692	-0.37452
C	 0.1101981305	 0.0405226726	-0.0078153017	-0.145702
N	 0.7411549384	-0.5002587219	 1.1861735015	 0.059515
C	 0.2509243696	-1.352756191	 2.1086598553	 0.015043
N	 1.1426328381	-1.5777156588	 3.0572357016	-0.277484
C	 2.1922162814	-0.8125920226	 2.6535952267	 0.040238
N	 2.002004397	-0.1403804763	 1.5286365255	-0.253125
H	 0.7758765207	 2.0781598194	 0.280847389	 0.154127
H	-0.6046197682	 1.9097147146	-0.8242948927	 0.123837
H	-0.8440528739	 1.7555098519	 0.9280917452	 0.128757
H	-0.8190151255	-0.5173356067	-0.1555044664	 0.124395
H	 0.7655734475	-0.1709135411	-0.8579957463	 0.137928
H	-0.7399684178	-1.7774206884	 2.0442616746	 0.140552
H	 3.1222279894	-0.7505526945	 3.1988982984	 0.126438
61.7466	147.8959	220.9414	348.0129	408.7227	659.7871	683.6296	700.3715	797.2393	852.7604	907.9527	973.1154	975.2779	1031.0479	1094.1576	1122.4852	1171.2387	1233.4907	1262.1361	1310.0942	1349.3473	1377.5867	1397.9962	1410.5503	1474.6345	1485.8098	1489.9081	1508.8934	1549.2733	3048.7622	3059.1999	3101.6074	3122.76	3140.6698	3253.5248	3259.9158
CCN1C=NC=N1	CCn1cncn1	
InChI=1S/C4H7N3/c1-2-7-4-5-3-6-7/h3-4H,2H2,1H3	InChI=1S/C4H7N3/c1-2-7-4-5-3-6-7/h3-4H,2H2,1H3
