19
gdb 2206	4.12659	2.13947	1.66289	1.3159	67.05	-0.251	0.0742	0.3251	819.7929	0.170964	-310.912796	-310.904739	-310.903794	-310.944433	30.263	
C	-0.0465252377	 1.5741754728	-0.0747373802	-0.409002
C	 0.0670457657	 0.0590996569	 0.0114408997	 0.048411
C	 1.0693610284	-0.6783907879	-0.9207626035	-0.282932
C	 1.3437613944	-1.6644326962	 0.2439891629	 0.145706
O	 2.668565416	-2.0627740158	 0.5158707148	-0.431976
C	 0.7658584168	-0.6220230762	 1.2397756778	-0.031908
C	 1.8290360856	 0.2115010505	 1.9518298109	-0.385905
H	 0.9276887363	 2.061762379	 0.0302047842	 0.115231
H	-0.4631480168	 1.8756858403	-1.0424424695	 0.111617
H	-0.7048773894	 1.972039774	 0.7058677902	 0.112456
H	-0.9295475918	-0.3799148827	-0.1115528697	 0.068405
H	 0.6984160085	-1.0806246007	-1.8676234503	 0.086109
H	 1.9563120504	-0.0671577661	-1.1161712831	 0.101624
H	 0.6788913992	-2.5380989552	 0.1743965609	 0.061105
H	 2.9566733749	-2.6512485552	-0.1888233178	 0.281355
H	 0.078733024	-1.0362389883	 1.9843600526	 0.061532
H	 2.5545368406	 0.643564079	 1.2568046572	 0.117589
H	 1.367974918	 1.0303791672	 2.5135921749	 0.105961
H	 2.3899151768	-0.4111667753	 2.6541160982	 0.12462
101.0783	207.0205	224.6795	235.9983	236.84	255.7498	340.1313	409.1393	476.3176	525.0312	629.5119	759.0547	801.3751	876.7609	906.9934	934.6128	994.0351	1017.4064	1041.9824	1075.9765	1137.5373	1145.5093	1170.4067	1185.3116	1227.4599	1241.1713	1280.0745	1285.5806	1332.6379	1368.246	1377.0122	1404.3602	1414.2467	1430.5262	1487.2291	1489.8913	1492.9193	1502.0738	1504.634	2983.5639	3026.6441	3031.7162	3040.3215	3046.6857	3051.986	3087.6285	3100.3373	3104.2582	3108.5246	3117.8295	3818.3452
CC1CC(O)C1C	C[C@H]1C[C@@H](O)[C@H]1C	
InChI=1S/C6H12O/c1-4-3-6(7)5(4)2/h4-7H,3H2,1-2H3	InChI=1S/C6H12O/c1-4-3-6(7)5(4)2/h4-7H,3H2,1-2H3/t4-,5-,6+/m0/s1
