16
gdb 2263	3.70219	2.7976	2.17476	2.7166	60.45	-0.2323	0.0745	0.3068	678.7524	0.137289	-325.735821	-325.729084	-325.72814	-325.766048	26.012	
C	-0.0638829074	 1.5292959648	 0.045279931	-0.518186
C	 0.1498258401	 0.0498400163	-0.0141783093	 0.317792
N	-0.790217321	-0.9138871708	 0.618699685	-0.391818
C	 0.6582253608	-0.9447201148	 0.97159633	-0.096529
C	 1.3231125135	-1.7888050588	-0.1127977754	-0.257594
C	 0.7464330568	-0.7740810146	-1.1771818751	 0.110501
O	-0.1625450278	-1.2473556152	-2.1293951195	-0.4392
H	 0.8458360906	 2.0691085368	-0.2386577731	 0.12738
H	-0.8613908462	 1.8374670687	-0.6406363877	 0.135392
H	-0.3435277468	 1.8511885061	 1.0547913603	 0.116051
H	-1.2796541043	-0.4146841149	 1.3606542649	 0.226201
H	 0.9719443925	-0.7965906309	 1.998075143	 0.092236
H	 2.4148972458	-1.7786176913	-0.072492086	 0.101298
H	 0.9633311587	-2.8169848524	-0.2019115946	 0.103774
H	 1.5371819895	-0.2458930496	-1.7159504412	 0.085662
H	-0.9155790246	-1.5724061093	-1.6158988323	 0.28704
154.5687	195.0501	238.5892	292.7721	391.2738	457.8105	532.4203	576.2557	663.8485	686.2017	817.5498	854.8973	901.8032	919.516	938.8084	1009.047	1032.0733	1063.8057	1103.8163	1109.1139	1134.03	1164.2178	1205.7292	1236.7117	1290.4773	1308.8132	1353.3178	1404.8184	1434.245	1453.1919	1478.7517	1483.382	1497.391	3023.5495	3061.7713	3083.1376	3088.5081	3094.1802	3122.2602	3185.8578	3475.9292	3743.3502
CC12NC1CC2O	C[C@]12N[C@H]1C[C@H]2O	
InChI=1S/C5H9NO/c1-5-3(6-5)2-4(5)7/h3-4,6-7H,2H2,1H3	InChI=1S/C5H9NO/c1-5-3(6-5)2-4(5)7/h3-4,6-7H,2H2,1H3/t3-,4+,5-/m0/s1
