10
gdb 3938	6.14313	2.97908	2.00619	3.6923	50.41	-0.2417	-0.0763	0.1654	573.8035	0.069134	-355.510313	-355.5053	-355.504356	-355.539069	18.507	
O	 0.1054956083	 1.2989361427	 0.1192756709	-0.377057
C	 0.0701357689	-0.0337833009	 0.0478859743	 0.500519
N	 0.0923159258	-0.5898908595	-1.1686208767	-0.319057
C	 0.0545476561	-1.9148367492	-1.1661314251	-0.000385
C	-0.0030445901	-2.6212483277	 0.0332769715	 0.000965
N	-0.0217334992	-1.9875667089	 1.2054589679	-0.154137
N	 0.01523063	-0.6643730996	 1.2265432379	-0.229861
H	 0.143177205	 1.6254394593	-0.7904511186	 0.311745
H	 0.0703846118	-2.4187495699	-2.1294942606	 0.135686
H	-0.0349294366	-3.7040144562	 0.0695862784	 0.131583
178.7275	403.6587	448.7169	537.669	576.6512	609.9084	657.3611	834.1019	885.3812	890.7098	1004.1683	1034.4931	1091.5788	1129.1591	1158.9845	1264.8795	1363.4058	1463.3891	1483.1577	1571.4886	1612.4121	3162.4711	3205.7852	3778.1459
OC1=NC=CN=N1	Oc1nccnn1	
InChI=1S/C3H3N3O/c7-3-4-1-2-5-6-3/h1-2H,(H,4,6,7)	InChI=1S/C3H3N3O/c7-3-4-1-2-5-6-3/h1-2H,(H,4,6,7)
