9
gdb 3909	6.10623	2.88681	1.96013	3.9742	47.55	-0.2841	-0.1149	0.1692	571.1238	0.054764	-375.344926	-375.339618	-375.338674	-375.374123	18.839	
O	 0.0128941368	-0.0721026495	 0.0028172823	-0.320011
C	 0.0302758209	 1.1265287063	 0.0090223844	 0.479053
O	-1.1670245879	 1.8225328394	 0.0280145553	-0.261293
N	-1.2443710786	 3.2624716401	 0.0362542539	 0.082267
N	-0.2000837555	 3.91695249	 0.0258549264	-0.113065
C	 1.0590958939	 3.3136599628	 0.0062509644	 0.049115
C	 1.2111659576	 1.9816238583	-0.0024160231	-0.232909
H	 1.8845795581	 4.0145271649	-0.0011619065	 0.159987
H	 2.1803114347	 1.4985833479	-0.017688277	 0.156856
126.7097	297.2186	382.1595	510.6366	549.7813	612.9478	718.0812	761.4896	838.5469	878.1483	972.2829	1014.479	1018.0923	1175.7784	1218.1901	1412.2748	1586.6295	1665.9504	1854.7817	3213.2223	3231.0339
O=C1ON=NC=C1	O=C1O[N]N=C[CH]1	
InChI=1S/C3H2N2O2/c6-3-1-2-4-5-7-3/h1-2H	InChI=1S/C3H2N2O2/c6-3-1-2-4-5-7-3/h1-2H
