12
gdb 4412	4.15302	2.01344	1.35655	6.658	59.32	-0.2506	-0.0389	0.2117	818.4116	0.086949	-410.920972	-410.91446	-410.913516	-410.951614	24.215	
N	-0.0106143521	 1.3629069202	-0.0939105951	-0.567281
C	-0.0298531863	 0.0101428849	-0.0352412641	 0.522393
N	-1.1866688149	-0.6201557687	-0.0171585026	-0.34107
C	-1.0823442812	-1.9731743654	 0.0010942342	 0.0767
N	-0.0142585046	-2.7255539462	 0.0118383496	-0.318
C	 1.2095544179	-2.0937308851	-0.0053628547	 0.440843
O	 2.2965781858	-2.6190998698	-0.0034666785	-0.374153
N	 1.1423431256	-0.6633284307	-0.0288200318	-0.38374
H	 0.8202906823	 1.8805482406	 0.1364768357	 0.269955
H	-0.8990365144	 1.8175450747	 0.0419565145	 0.28392
H	-2.0389898033	-2.4942853543	 0.0123442971	 0.127012
H	 2.0365150752	-0.1926614602	-0.0655771642	 0.263422
133.1344	193.7039	280.1107	351.547	426.1265	500.2908	516.723	573.8403	599.3621	646.5174	765.4413	818.0168	831.7215	950.9106	1010.9577	1033.6194	1069.8976	1099.7186	1316.6685	1336.7513	1417.4423	1503.8277	1583.6506	1634.7467	1661.3515	1834.431	3144.2172	3593.8002	3606.4361	3731.1115
NC1=NC=NC(=O)N1	Nc1ncnc(=O)[nH]1	
InChI=1S/C3H4N4O/c4-2-5-1-6-3(8)7-2/h1H,(H3,4,5,6,7,8)	InChI=1S/C3H4N4O/c4-2-5-1-6-3(8)7-2/h1H,(H3,4,5,6,7,8)
