17
gdb 3240	7.13889	1.49615	1.36545	1.6933	64.19	-0.2588	0.0985	0.3573	911.6136	0.14829	-309.680487	-309.67333	-309.672386	-309.712245	26.114	
C	 0.0379010113	 1.4682810331	-0.4859702645	-0.250627
C	-0.0641631618	-0.0139871705	-0.1845590342	 0.035031
C	-0.2959789482	-0.4804271723	 1.2297820237	-0.244697
C	-1.3876191983	-0.6267105501	 0.1979043117	-0.280038
C	 1.3992718525	 2.038927997	-0.1609953821	 0.115949
C	 1.5850542908	 3.4252150492	 0.2833292607	-0.18405
O	 1.6582470566	 2.3425240583	 1.2132207726	-0.232927
H	-0.1785273618	 1.6506634408	-1.5478812868	 0.100038
H	-0.7151075465	 2.0173571708	 0.0921040579	 0.099305
H	 0.5898398098	-0.6378195976	-0.7896267904	 0.080224
H	 0.2145019556	-1.374601009	 1.5696384366	 0.109524
H	-0.4096941457	 0.2817973395	 1.9924012664	 0.124047
H	-2.2480546722	 0.0310565244	 0.2702696722	 0.108482
H	-1.6218127152	-1.6198894174	-0.1693097716	 0.109768
H	 2.2396158846	 1.5569345189	-0.6657184231	 0.087715
H	 2.5246821137	 3.9403765638	 0.0877319759	 0.112245
H	 0.7160725949	 4.0741780911	 0.389518385	 0.110012
73.8501	79.1682	167.5273	317.4218	351.4684	398.5533	482.7719	769.4024	779.442	818.3284	835.6679	858.8023	897.1007	952.8981	959.5034	1007.07	1050.0189	1071.5622	1075.651	1100.0983	1137.8123	1156.9654	1167.102	1190.5218	1197.4008	1230.0111	1272.2401	1293.6436	1322.0446	1411.7769	1450.3572	1465.4082	1474.2429	1508.4334	1530.9102	3012.553	3059.3584	3078.6695	3087.9238	3128.4222	3131.2058	3140.0615	3164.0671	3207.9623	3226.2607
C(C1CC1)C1CO1	C(C1CC1)[C@H]1CO1	
InChI=1S/C6H10O/c1-2-5(1)3-6-4-7-6/h5-6H,1-4H2	InChI=1S/C6H10O/c1-2-5(1)3-6-4-7-6/h5-6H,1-4H2/t6-/m0/s1
