18
gdb 226	4.38057	2.60111	2.59415	1.3469	59.72	-0.2638	0.0725	0.3363	650.4504	0.163869	-272.841336	-272.83319	-272.832246	-272.872437	29.797	
C	-0.0080850179	 1.543405236	 0.0111898546	-0.397351
C	 0.0190556525	 0.0044059346	 0.0053428022	 0.267392
C	 0.7596279211	-0.5106496068	 1.2525518293	-0.397332
C	-1.4178449326	-0.5433445881	-0.0123492516	-0.411712
C	 0.7354341368	-0.492537647	-1.2599818905	-0.071241
O	 2.0686360224	-0.0004929599	-1.2688453659	-0.426535
H	 1.0056791192	 1.9493666518	-0.0230446085	 0.129292
H	-0.5562305033	 1.9307968637	-0.8553770295	 0.101024
H	-0.5013847179	 1.9198974369	 0.9136434494	 0.103271
H	 0.2741006048	-0.1545981099	 2.1674298665	 0.10326
H	 0.7656865768	-1.606345185	 1.2823750263	 0.101008
H	 1.7971490374	-0.1682490751	 1.2565817446	 0.129299
H	-1.9690038065	-0.1945976415	-0.893133311	 0.107094
H	-1.4290381145	-1.6392453464	-0.020212659	 0.107093
H	-1.9675390354	-0.2125905207	 0.8750683941	 0.112345
H	 0.724086076	-1.5948601356	-1.2736990213	 0.078122
H	 0.1833676349	-0.145696473	-2.149013508	 0.078132
H	 2.5029696161	-0.3202562139	-2.0641956316	 0.28684
123.6712	204.1914	231.001	239.9637	251.5696	261.5809	333.3108	348.9291	401.5465	414.0615	522.8564	738.4293	903.6736	928.1769	942.4872	958.4925	963.8874	1031.6305	1087.0627	1089.3203	1196.9771	1223.9953	1267.7388	1300.0577	1312.1583	1396.2658	1399.1554	1419.3482	1462.1439	1477.2552	1486.734	1489.825	1497.0371	1505.1676	1519.7662	1523.3769	2956.1188	2986.925	3022.0488	3027.1894	3033.8013	3086.6542	3090.8489	3091.0162	3097.6137	3121.6641	3125.4292	3838.0725
CC(C)(C)CO	CC(C)(C)CO	
InChI=1S/C5H12O/c1-5(2,3)4-6/h6H,4H2,1-3H3	InChI=1S/C5H12O/c1-5(2,3)4-6/h6H,4H2,1-3H3
