12
gdb 2747	4.60155	2.30758	1.76874	3.1362	52.3	-0.2575	-0.0363	0.2212	685.6949	0.089807	-360.539435	-360.532833	-360.531889	-360.570504	22.576	
O	-0.6056100964	 0.7840126521	-0.5810847844	-0.238083
C	 0.2116930027	 0.9544563942	 0.2880711978	 0.15056
C	 1.3923417073	 1.8816857753	 0.1755319736	-0.251795
C	 1.5247444326	 2.7011887077	-1.1307968317	-0.171521
N	 1.2934073331	 3.9079698884	-0.3252293357	-0.312485
C	 1.1656736829	 3.2783032771	 0.8795032736	 0.416931
O	 0.9632039959	 3.6485681472	 2.0005293627	-0.341843
H	 0.1280978368	 0.4414941781	 1.2696170586	 0.099369
H	 2.3011323353	 1.3937756041	 0.5377986949	 0.123974
H	 2.5103800016	 2.6637314437	-1.6025910804	 0.119317
H	 0.7393715093	 2.4890781084	-1.8589766846	 0.145209
H	 1.224496589	 4.8847731038	-0.5687067444	 0.260368
87.0755	106.9037	212.5803	250.0617	408.3186	475.8464	644.2488	680.3416	743.479	820.5009	882.9722	988.2184	999.6569	1053.2431	1087.5356	1138.447	1170.1697	1182.1029	1289.8155	1331.5977	1390.5748	1423.7979	1524.041	1817.515	1906.1372	2911.1102	3061.1884	3091.6419	3123.9326	3617.4449
O=CC1CNC1=O	O=C[C@H]1CNC1=O	
InChI=1S/C4H5NO2/c6-2-3-1-5-4(3)7/h2-3H,1H2,(H,5,7)	InChI=1S/C4H5NO2/c6-2-3-1-5-4(3)7/h2-3H,1H2,(H,5,7)/t3-/m1/s1
