18
gdb 4115	3.48133	1.45652	1.0909	0.8087	73.52	-0.2194	0.0069	0.2263	1099.934	0.151713	-381.054664	-381.045833	-381.044889	-381.087832	32.099	
C	 0.0212103151	 1.5826078443	-0.0163144877	-0.390546
C	 0.0715394736	 0.0654253428	 0.0641733095	-0.026274
N	 0.6785975731	-0.6341992806	-1.1066311862	-0.086828
C	-0.2132600927	-1.2808477696	-2.0438847931	-0.325772
C	 1.5107770739	-1.5016780802	-0.2356339456	-0.262436
C	 1.1300097369	-0.6029007607	 0.917503824	 0.400941
N	 1.5120350814	-0.3778862973	 2.099620127	-0.243715
O	 2.5639564953	-1.2402474509	 2.4637073683	-0.392582
H	 1.0093435032	 1.9845367359	-0.2535882387	 0.125131
H	-0.6801124757	 1.9040711447	-0.7933527941	 0.115626
H	-0.3100699709	 2.0027284144	 0.9382885126	 0.127365
H	-0.9291807932	-0.3351118402	 0.3077490936	 0.07669
H	-0.8357475266	-0.5302350189	-2.5418225017	 0.12315
H	 0.3684481308	-1.7949552773	-2.8161254683	 0.123652
H	-0.8841907307	-2.0233645709	-1.5699550453	 0.091784
H	 1.124513096	-2.5274328761	-0.1134316599	 0.107893
H	 2.5707735008	-1.5555283902	-0.504892472	 0.128543
H	 2.7617450696	-0.9513334793	 3.3609886174	 0.307379
84.4633	152.8788	181.6712	202.2151	214.4206	246.9681	306.6589	352.3231	376.8299	464.4236	504.7013	552.7349	680.2218	778.3906	825.4619	955.4545	970.0095	978.7708	1045.2153	1065.3989	1110.1909	1130.1561	1161.7757	1182.1677	1207.2225	1213.0645	1290.7057	1317.6321	1364.9381	1402.0266	1411.8342	1451.8898	1482.5956	1486.7502	1491.6853	1497.2224	1500.4254	1811.2481	2920.0583	2936.9708	2968.1916	3039.2021	3058.758	3064.5891	3100.245	3109.144	3126.5482	3818.0724
CC1N(C)CC1=NO	C[C@H]1N(C)CC1=NO	
InChI=1S/C5H10N2O/c1-4-5(6-8)3-7(4)2/h4,8H,3H2,1-2H3	InChI=1S/C5H10N2O/c1-4-5(6-8)3-7(4)2/h4,8H,3H2,1-2H3/t4-/m1/s1
