15
gdb 2837	3.61538	2.41798	1.64325	1.1902	64.	-0.231	0.0483	0.2793	774.5542	0.123048	-308.455419	-308.447861	-308.446917	-308.486877	27.449	
C	 0.1576192719	 0.9943216072	 0.3911389257	-0.240374
O	-0.1899832648	 0.0196636558	-0.5784853648	-0.228592
C	-1.3859883375	-0.6146476723	-0.3039579186	 0.139385
C	-1.5675798281	-1.9745965315	-0.8752872892	-0.324312
C	-1.4110497468	-1.8219728186	 0.6403433955	-0.239793
C	-0.2136920648	-2.268672754	 1.2839134812	 0.339951
C	 0.7816680723	-2.6457326244	 1.8454470772	-0.464908
H	 1.0992738832	 1.4421565979	 0.0666975814	 0.129174
H	-0.6080172607	 1.781986775	 0.4574666625	 0.104211
H	 0.2922768792	 0.5425981198	 1.3815362896	 0.127129
H	-2.2527228419	 0.0469851338	-0.246425688	 0.088636
H	-2.5395097683	-2.2619501172	-1.2590258381	 0.12089
H	-0.7152775567	-2.3876281769	-1.401135025	 0.141759
H	-2.3190637636	-1.9387734331	 1.2256475159	 0.112843
H	 1.6629772866	-2.9816575016	 2.3322161047	 0.194001
104.8266	143.3611	193.3952	206.9069	270.2873	373.4251	446.1221	534.5562	573.0286	644.8146	663.1285	763.5292	774.95	844.8663	959.6767	1025.6889	1064.282	1085.5315	1119.8688	1130.0429	1161.3213	1183.7301	1223.8644	1265.5607	1370.0054	1398.6093	1468.8584	1487.8219	1493.6223	1505.958	2234.503	2990.4422	3060.6793	3080.4741	3126.2906	3142.0499	3146.617	3242.336	3506.8185
COC1CC1C#C	CO[C@H]1C[C@H]1C#C	
InChI=1S/C6H8O/c1-3-5-4-6(5)7-2/h1,5-6H,4H2,2H3	InChI=1S/C6H8O/c1-3-5-4-6(5)7-2/h1,5-6H,4H2,2H3/t5-,6+/m1/s1
