14
gdb 813	4.61505	2.06552	1.51842	0.9638	57.41	-0.2503	-0.002	0.2483	780.2381	0.111986	-361.65225	-361.644826	-361.643881	-361.684083	26.249	
O	-0.0824538286	 1.3113024003	-0.0247701185	-0.389604
N	 0.0268132375	-0.0870377052	 0.0600630574	-0.242816
C	-1.1070832216	-0.6463981668	 0.043947566	 0.383132
C	-2.555095012	-0.2471391387	-0.1470314409	-0.325143
C	-2.8440156349	-1.7440882079	-0.4954119649	-0.236228
C	-1.422354188	-2.1335579739	 0.0067294622	 0.063353
O	-0.6881153675	-2.9489826071	-0.8720755489	-0.430504
H	 0.8399062247	 1.5894007043	-0.0255493453	 0.307366
H	-3.0317245255	 0.0965432257	 0.7762223328	 0.127675
H	-2.7410587571	 0.496332709	-0.9253459339	 0.133574
H	-3.6867773261	-2.2181944391	 0.0086677612	 0.107169
H	-2.9169671194	-1.9120707717	-1.571303974	 0.126097
H	-1.4525137011	-2.5622498631	 1.0215777163	 0.082028
H	 0.2459613396	-2.7664193359	-0.7225875795	 0.293903
68.4669	116.9586	192.0787	215.5563	326.9927	381.9322	461.1359	496.2597	587.1119	682.0103	757.5101	815.3272	918.0369	934.9267	984.4467	1039.7895	1064.0359	1136.3308	1168.8032	1208.1026	1225.6723	1238.4494	1266.6679	1338.8602	1392.1291	1407.2956	1461.1166	1484.4184	1787.215	2967.7123	3060.3428	3084.8677	3110.519	3146.3618	3813.1469	3815.3935
ON=C1CCC1O	ON=C1CC[C@H]1O	
InChI=1S/C4H7NO2/c6-4-2-1-3(4)5-7/h4,6-7H,1-2H2	InChI=1S/C4H7NO2/c6-4-2-1-3(4)5-7/h4,6-7H,1-2H2/t4-/m1/s1
