13
gdb 1398	6.89864	1.43128	1.24299	2.3425	60.22	-0.2691	0.0174	0.2865	901.0198	0.100805	-303.468081	-303.460314	-303.45937	-303.500018	27.234	
N	 0.0053563677	 1.5308786434	 0.0118044751	-0.480958
C	-0.0065241806	 0.0730440194	-0.0472828377	-0.125424
C	-1.4488701079	-0.4712922393	 0.1206354597	-0.35136
C	-2.013846219	-0.1659406959	 1.4265626401	 0.316998
C	-2.4748809648	 0.0617771242	 2.5117945385	-0.432357
C	 0.5819660571	-0.4687460704	-1.2935701114	 0.254707
N	 1.0435487138	-0.847600329	-2.2838152391	-0.318341
H	 0.9592636026	 1.8769928031	-0.0154252357	 0.248127
H	-0.4702487977	 1.9180296892	-0.798648807	 0.242577
H	 0.5940058244	-0.2998298809	 0.7893736498	 0.146749
H	-2.0755871522	-0.0504082775	-0.6758555422	 0.143704
H	-1.4352489347	-1.555245719	-0.0402323256	 0.153773
H	-2.8871733787	 0.2722912328	 3.4674760355	 0.201805
72.9714	125.169	189.6894	239.9435	280.9909	339.7789	355.012	489.0043	553.1927	582.2234	623.9543	656.7883	829.5136	892.4001	939.3168	957.5416	1012.2094	1133.7201	1159.0804	1284.3742	1304.7743	1361.397	1394.8631	1467.2545	1664.6463	2246.8053	2344.4754	3030.4179	3060.3043	3074.1868	3497.0313	3505.9063	3579.1756
NC(CC#C)C#N	N[C@@H](CC#C)C#N	
InChI=1S/C5H6N2/c1-2-3-5(7)4-6/h1,5H,3,7H2	InChI=1S/C5H6N2/c1-2-3-5(7)4-6/h1,5H,3,7H2/t5-/m0/s1
