14
gdb 2504	3.37585	2.13655	1.3808	3.7363	63.24	-0.2853	0.0136	0.2989	856.9377	0.111711	-287.422111	-287.414238	-287.413294	-287.454107	27.648	
C	-0.0438191818	 1.5556012479	-0.0232828263	-0.402188
C	-0.0091618742	 0.0279642618	 0.0047259857	-0.174349
C	 0.7626697534	-0.5422065694	 1.2306132759	-0.310598
C	 0.6812530273	-2.0018161407	 1.2950658679	 0.316345
C	 0.5833386428	-3.1974574113	 1.3288473248	-0.414809
C	 2.1670314126	-0.097034474	 1.2213622586	 0.297065
N	 3.2594687263	 0.2776936837	 1.2013797877	-0.325893
H	 0.9645422491	 1.9765534137	-0.075858521	 0.148582
H	-0.6014118485	 1.9069064358	-0.8957594388	 0.126271
H	-0.532610776	 1.9593241397	 0.8700902913	 0.121495
H	-1.0225610107	-0.3820389742	 0.0524388424	 0.122211
H	 0.4530957981	-0.3673382837	-0.9047330367	 0.131041
H	 0.3068137488	-0.1243654801	 2.1396763837	 0.155656
H	 0.5074963229	-4.2563612793	 1.3665937448	 0.209171
103.8936	133.9283	154.1711	186.9593	258.0194	342.75	364.5837	485.9575	559.9558	581.1934	646.9808	666.9365	760.3455	845.3852	944.3578	1003.566	1045.967	1102.1964	1130.0172	1260.0067	1291.4921	1337.1324	1364.4782	1419.1105	1487.8119	1498.3359	1506.0065	2248.931	2362.9914	3011.2108	3039.4037	3058.0736	3094.1727	3114.0995	3122.4455	3502.627
CCC(C#C)C#N	CC[C@@H](C#C)C#N	
InChI=1S/C6H7N/c1-3-6(4-2)5-7/h1,6H,4H2,2H3	InChI=1S/C6H7N/c1-3-6(4-2)5-7/h1,6H,4H2,2H3/t6-/m1/s1
