13
gdb 4273	4.04688	1.87483	1.28248	5.3859	64.13	-0.2225	-0.0207	0.2017	871.4302	0.097246	-398.649944	-398.643321	-398.642377	-398.680553	25.451	
N	 0.0865474705	 1.3692031972	 0.1794212314	-0.564991
C	-0.0457282728	 0.0070107869	 0.0646696755	 0.453742
C	-1.2045024191	-0.6969719784	 0.0303784244	-0.361677
C	-1.2096646427	-2.149689938	-0.0154965981	 0.389054
O	-2.2223588736	-2.8372551414	-0.0462555736	-0.391049
C	 0.1486108279	-2.7287810437	-0.0281706835	-0.264259
C	 1.2307534996	-1.9462413219	-0.003025321	 0.06325
O	 1.1741559837	-0.5842079597	 0.0426242342	-0.224615
H	 0.95652295	 1.7457529323	-0.1668871814	 0.26508
H	-0.7266974144	 1.9075809838	-0.0741247846	 0.269849
H	-2.1530378754	-0.1742225568	 0.043114119	 0.101516
H	 0.2548853403	-3.8056926541	-0.0633568811	 0.122172
H	 2.2600076061	-2.2807439862	-0.0142240813	 0.141928
162.7087	189.7312	310.2106	356.3867	412.9648	482.4046	518.534	521.5287	561.6546	687.2053	731.2073	767.9453	827.2216	862.8148	915.9053	950.6638	957.4895	1047.1871	1116.304	1226.0218	1283.5	1292.3696	1413.2666	1439.0086	1615.3615	1649.1385	1708.0811	1746.5166	3207.7475	3212.5408	3232.9692	3583.2612	3696.1884
NC1=CC(=O)C=CO1	Nc1cc(=O)cco1	
InChI=1S/C5H5NO2/c6-5-3-4(7)1-2-8-5/h1-3H,6H2	InChI=1S/C5H5NO2/c6-5-3-4(7)1-2-8-5/h1-3H,6H2
