13
gdb 1497	6.44742	1.49065	1.22931	1.9938	58.25	-0.2779	-0.04	0.2379	932.2865	0.099253	-344.449852	-344.442081	-344.441137	-344.482427	26.359	
C	 0.0373556453	 1.503664505	-0.0945244968	-0.393878
C	 0.0142064177	-0.0096424235	-0.0120391665	-0.045293
O	 0.6822331245	-0.5195829088	-1.187763204	-0.231178
C	 0.7472525343	-1.8572508065	-1.2791315107	 0.297486
O	 0.298212575	-2.6287396741	-0.4680665213	-0.354248
C	 1.4331356042	-2.2586373506	-2.489706411	 0.225823
C	 1.9931217848	-2.6506385633	-3.4776565876	-0.360372
H	 1.0643290234	 1.8779227932	-0.1231314396	 0.133859
H	-0.4826600586	 1.8543350527	-0.9901579659	 0.133838
H	-0.4605844265	 1.9277494148	 0.7824223502	 0.125954
H	 0.5333118005	-0.3832904539	 0.8761486378	 0.127793
H	-1.0052366403	-0.407103795	 0.0124451574	 0.128001
H	 2.4887620958	-2.9974823101	-4.351390512	 0.212216
49.4365	120.3	129.0513	245.5638	251.9741	303.814	373.5481	530.2621	607.2023	656.4581	696.3244	774.2519	807.7613	878.2136	938.7447	1053.7067	1134.9794	1180.8771	1256.3962	1290.563	1395.1995	1421.3919	1485.5334	1495.3767	1517.5914	1791.3778	2237.1715	3048.149	3052.9367	3091.9264	3122.6773	3129.2957	3499.0998
CCOC(=O)C#C	CCOC(=O)C#C	
InChI=1S/C5H6O2/c1-3-5(6)7-4-2/h1H,4H2,2H3	InChI=1S/C5H6O2/c1-3-5(6)7-4-2/h1H,4H2,2H3
