12
gdb 1940	7.95712	1.63331	1.55779	3.3428	57.29	-0.2543	0.0197	0.274	768.6877	0.089343	-323.360126	-323.353484	-323.35254	-323.390922	24.013	
O	 0.0285586426	-0.0547752256	 0.059215489	-0.347624
C	-0.0316598106	 1.1426071728	 0.0373865368	 0.432266
C	-1.158063131	 2.2045033436	 0.0562379661	-0.389129
C	-0.0042215518	 3.2636517226	-0.031852431	-0.135538
N	 0.9300852984	 2.1261168901	-0.0107151207	-0.309865
C	 0.0374518967	 4.0946787011	-1.2249083032	 0.333035
C	 0.0778140029	 4.7908855938	-2.2036910415	-0.450575
H	-1.8141475238	 2.1756846717	-0.8136271044	 0.146834
H	-1.7467661516	 2.2350202345	 0.9739156992	 0.138732
H	 0.0757818425	 3.8898153921	 0.8638138311	 0.116811
H	 1.9285872812	 2.0872631892	-0.1551226998	 0.257703
H	 0.1108306544	 5.402620134	-3.0714982516	 0.207351
61.0429	174.2827	240.3668	375.0299	445.5979	502.3378	539.3264	568.5039	633.1377	662.8095	741.8394	791.7568	946.2757	972.3758	1015.0614	1056.1464	1113.3236	1174.7421	1190.6104	1258.7103	1366.2243	1374.0571	1456.246	1904.6947	2238.5533	3041.1589	3097.6199	3162.3294	3501.4101	3611.2869
O=C1CC(N1)C#C	O=C1C[C@@H](N1)C#C	
InChI=1S/C5H5NO/c1-2-4-3-5(7)6-4/h1,4H,3H2,(H,6,7)	InChI=1S/C5H5NO/c1-2-4-3-5(7)6-4/h1,4H,3H2,(H,6,7)/t4-/m0/s1
