15
gdb 4862	6.65257	1.34857	1.13726	0.3393	64.69	-0.2116	0.0281	0.2397	1034.6631	0.118993	-399.835999	-399.828262	-399.827318	-399.86823	27.162	
C	 0.0415107658	 1.3178273498	-0.0300157388	-0.235337
O	-0.0663133162	-0.1082292584	-0.1000265265	-0.24934
C	-1.3042139994	-0.5704748064	-0.0149094588	 0.494005
N	-2.4170824905	 0.0736044781	 0.1199883734	-0.386365
C	-3.3687581237	-0.9510837786	 0.1481263495	-0.197849
C	-2.7669105124	-2.1540477934	 0.0281904026	 0.324252
C	-3.2129262971	-3.5663407282	-0.01199205	-0.492082
O	-1.402299242	-1.911007624	-0.080246682	-0.22183
H	 1.1060886921	 1.5361600631	-0.111735345	 0.137553
H	-0.5116062753	 1.7847549749	-0.8496025533	 0.144685
H	-0.355640639	 1.6860381241	 0.9199015176	 0.144738
H	-4.4208128647	-0.7377571705	 0.2542468838	 0.118248
H	-2.9342155107	-4.0536787681	-0.9534700547	 0.139924
H	-2.7764684606	-4.1541645818	 0.8037533536	 0.139893
H	-4.3006401962	-3.6072614304	 0.0833117685	 0.139505
95.7488	141.887	160.7331	209.3221	217.7075	317.424	349.5395	513.7279	631.5057	665.2978	736.6873	748.7706	842.1732	967.3686	974.9181	1034.006	1068.5626	1089.8437	1164.1051	1184.1947	1223.6824	1241.0408	1263.9447	1406.2922	1419.9283	1470.4188	1471.1921	1478.2797	1494.9257	1502.2327	1655.082	1669.5265	3028.3916	3046.8809	3078.0673	3120.4268	3126.0354	3160.4771	3261.4033
COC1=NC=C(C)O1	COc1ncc(C)o1	
InChI=1S/C5H7NO2/c1-4-3-6-5(7-2)8-4/h3H,1-2H3	InChI=1S/C5H7NO2/c1-4-3-6-5(7-2)8-4/h3H,1-2H3
