9
gdb 4634	6.95628	1.41752	1.17756	2.9978	52.82	-0.2794	-0.0724	0.207	882.0959	0.049334	-433.385694	-433.379715	-433.378771	-433.416153	21.065	
O	 0.0469693654	 0.0162703535	 0.0026718774	-0.338692
C	 0.0036053326	 1.1970837698	 0.0095527076	 0.512196
O	-1.1484944479	 1.9647101182	 0.0295725889	-0.19269
C	-0.7730397111	 3.2734762177	 0.0313021784	-0.103665
C	 0.5637133759	 3.3448152587	 0.0132459874	 0.221589
O	 1.0707676798	 2.0545564234	-0.00066071	-0.234252
C	 1.4459029756	 4.4421641883	 0.0068963185	 0.245407
N	 2.1594097025	 5.3538233415	 0.0018821861	-0.310855
H	-1.542758423	 4.0250798588	 0.0459199957	 0.200963
136.0027	158.9676	266.9974	467.5949	487.711	555.1369	605.9223	637.2229	767.2387	767.7222	822.1019	894.9029	967.4515	1047.3153	1164.8009	1280.6808	1314.2865	1686.0205	1966.4632	2354.6127	3305.8689
O=C1OC=C(O1)C#N	O=c1occ(o1)C#N	
InChI=1S/C4HNO3/c5-1-3-2-7-4(6)8-3/h2H	InChI=1S/C4HNO3/c5-1-3-2-7-4(6)8-3/h2H
