17
gdb 3356	4.45651	2.92616	2.27501	1.5043	62.84	-0.2478	0.0809	0.3287	648.7122	0.151225	-309.71344	-309.707473	-309.706529	-309.743542	23.05	
C	-0.0585973954	 1.4568992651	-0.3619136761	-0.216191
C	 1.3681313453	 1.6594205628	 0.2203663337	-0.216188
C	 1.4271955846	 0.1580887456	 0.6215195567	-0.022314
C	 1.2424361479	-0.1384518312	 2.1120657952	-0.090868
O	-0.1374501541	 0.0870402955	 2.3813057599	-0.249137
C	-0.8436455374	-0.4347598371	 1.2603986847	-0.090876
C	-0.0157712941	-0.0467858191	 0.0324439225	-0.022303
H	-0.8445521242	 2.0288481057	 0.1390566545	 0.101699
H	-0.1374519919	 1.6348900581	-1.4369498038	 0.097027
H	 2.1190247369	 1.9550227188	-0.5160992052	 0.097029
H	 1.4254408841	 2.3511843061	 1.0653516389	 0.10169
H	 2.2404818951	-0.4175496415	 0.1763973352	 0.067009
H	 1.511389127	-1.1855980981	 2.3321575437	 0.082884
H	 1.8214610722	 0.5152771554	 2.7712531013	 0.105323
H	-0.9286444103	-1.5321944994	 1.3359341843	 0.082883
H	-1.8503447179	-0.0063018929	 1.2722253745	 0.105324
H	-0.129023208	-0.7538986437	-0.7910198	 0.067008
60.567	226.4592	350.199	383.1947	596.4594	693.3974	745.9125	751.169	841.3202	862.7013	873.7776	939.8067	947.8885	966.5034	1000.2316	1002.8783	1060.7985	1101.7547	1122.9314	1167.3469	1175.5908	1207.0055	1228.4528	1262.0417	1262.9247	1280.6522	1286.5911	1326.6905	1332.3751	1352.3161	1397.6205	1472.4933	1492.0387	1497.1366	1510.5908	2956.1363	2963.0882	3053.6649	3060.0314	3080.874	3083.9323	3085.0446	3097.6597	3100.6579	3119.404
C1CC2COCC12	C1C[C@H]2COC[C@@H]12	
InChI=1S/C6H10O/c1-2-6-4-7-3-5(1)6/h5-6H,1-4H2	InChI=1S/C6H10O/c1-2-6-4-7-3-5(1)6/h5-6H,1-4H2/t5-,6+
