11
gdb 245	8.34296	2.73401	2.06751	2.4787	46.25	-0.2336	-0.0146	0.2189	561.2611	0.08593	-318.647923	-318.641827	-318.640883	-318.67749	21.711	
N	 0.1006576594	 1.3616850815	 0.1337205596	-0.521461
C	 0.1175881787	 0.0059656031	 0.0136440393	 0.442453
N	 1.196420336	-0.6536215773	-0.1669411878	-0.54942
N	-1.1613040674	-0.6074780508	 0.1513756855	-0.339184
C	-2.3990863082	-0.0244460174	 0.1874132155	 0.178218
O	-2.6405142075	 1.1632264939	 0.125117547	-0.317721
H	 0.9539678818	 1.823417354	-0.1317391404	 0.263574
H	-0.7837693987	 1.8397411182	 0.0385971881	 0.28357
H	 1.0351346567	-1.6569073005	-0.1963385151	 0.20317
H	-1.141582588	-1.6153739	 0.1780688953	 0.257432
H	-3.195873783	-0.7854539848	 0.2808063331	 0.09937
90.3759	261.1552	279.7778	420.1337	444.9207	481.3886	525.6031	620.8145	724.4942	762.6232	789.1192	919.7325	1029.1485	1126.8762	1160.1481	1190.3173	1401.9119	1447.353	1486.136	1608.8808	1758.5793	1803.8175	2965.2116	3520.6182	3555.688	3631.4876	3712.5385
NC(=N)NC=O	NC(=N)NC=O	
InChI=1S/C2H5N3O/c3-2(4)5-1-6/h1H,(H4,3,4,5,6)	InChI=1S/C2H5N3O/c3-2(4)5-1-6/h1H,(H4,3,4,5,6)
