19
gdb 4025	2.48288	1.09955	0.81241	0.0185	81.65	-0.2283	-0.0329	0.1955	1416.6738	0.156231	-456.275959	-456.265455	-456.264511	-456.312007	37.568	
C	 0.0099309772	 1.645116993	-0.0953446129	-0.376209
C	-0.0395623296	 0.1147708075	 0.0651163606	-0.275288
C	-1.4545836599	-0.4097734384	 0.0477455735	 0.30166
N	-2.115244817	-0.6718101125	-1.0252697664	-0.182519
O	-1.3716027706	-0.418593622	-2.1780386079	-0.386147
C	-2.1891523421	-0.6284108978	 1.309582723	 0.31558
C	-3.6039591407	-1.1389725721	 1.3154714792	-0.486819
N	-1.5365347395	-0.3425521388	 2.3812776288	-0.180926
O	-2.3027636508	-0.5661185131	 3.5243100695	-0.387868
H	 1.0466408175	 1.9948750428	-0.0856718866	 0.11327
H	-0.445461818	 1.9520714994	-1.0404014109	 0.130874
H	-0.5219525011	 2.1387084867	 0.723109041	 0.124626
H	 0.5093369014	-0.3556968129	-0.7545064865	 0.119807
H	 0.4288444141	-0.1712123274	 1.0074480489	 0.12152
H	-1.9819100024	-0.6804740565	-2.8757506084	 0.309384
H	-3.959188496	-1.3093460383	 0.3019316535	 0.14487
H	-3.659931313	-2.0690022	 1.8897248897	 0.142562
H	-4.2565377081	-0.4208805376	 1.8217476719	 0.142511
H	-1.6961285713	-0.316963632	 4.23000462	 0.309112
56.0047	65.0146	91.4724	158.0681	201.5055	226.3754	270.4346	311.2506	343.2824	358.3953	423.5329	437.6024	457.4183	470.8207	557.1799	668.4644	706.0447	764.7528	808.3513	924.916	988.7683	1006.9969	1043.4717	1053.8793	1074.7009	1096.5223	1153.5685	1285.6679	1324.7987	1356.946	1385.2621	1397.5442	1401.0339	1433.6738	1480.0773	1484.6677	1485.6078	1499.1683	1507.8067	1680.8211	1687.4379	3042.5821	3051.4292	3072.888	3103.405	3112.7806	3115.9858	3138.4345	3179.7575	3814.4514	3816.6117
CCC(=NO)C(C)=NO	CCC(=NO)C(=NO)C	
InChI=1S/C5H10N2O2/c1-3-5(7-9)4(2)6-8/h8-9H,3H2,1-2H3	InChI=1S/C5H10N2O2/c1-3-5(7-9)4(2)6-8/h8-9H,3H2,1-2H3
