12
gdb 3743	8.03971	2.09599	1.68027	3.0658	52.77	-0.227	-0.0003	0.2266	696.8324	0.091379	-356.693135	-356.6869	-356.685956	-356.723234	22.267	
C	-0.0607636144	 1.4457710545	 0.0535994496	-0.328939
N	-0.0003311096	 0.0047866043	-0.0765759669	 0.091705
C	 0.0757646761	-0.7455279532	-1.2101158774	-0.197623
C	 0.1051587767	-2.0354623987	-0.730690617	 0.373847
O	 0.1784202056	-3.1808137615	-1.433557654	-0.426196
N	 0.0478689797	-2.0144838554	 0.6197839198	-0.282873
N	-0.0165768437	-0.7655337157	 1.016770997	-0.149753
H	 0.83296854	 1.9092764778	-0.3735394636	 0.148288
H	-0.9475238691	 1.8414057239	-0.4495460727	 0.148277
H	-0.114737679	 1.6690625045	 1.1189157596	 0.171272
H	 0.1010310063	-0.3252990864	-2.1995057507	 0.144082
H	 0.1789613514	-3.8993398742	-0.7879994936	 0.307912
104.9381	180.4165	303.1882	369.2743	391.4567	461.1868	624.204	666.4405	704.8765	751.488	789.7828	1047.3287	1050.7605	1063.2131	1151.8503	1168.8655	1213.6339	1279.9318	1345.3232	1418.0881	1448.9331	1483.1231	1497.8856	1524.1785	1654.7175	3049.0198	3113.8256	3165.5338	3297.1901	3790.1534
CN1C=C(O)N=N1	Cn1cc(O)nn1	
InChI=1S/C3H5N3O/c1-6-2-3(7)4-5-6/h2,7H,1H3	InChI=1S/C3H5N3O/c1-6-2-3(7)4-5-6/h2,7H,1H3
