15
gdb 1153	3.30736	2.21172	1.85995	0.6206	68.3	-0.2614	0.033	0.2944	776.0986	0.121207	-271.316064	-271.307761	-271.306817	-271.347683	30.83	
C	-0.0255027962	 1.542133311	-0.0004699105	-0.393897
C	-0.0022219996	-0.0102189787	-0.0054806225	-0.11858
C	 0.7480987827	-0.5284436905	 1.2510353826	-0.393897
C	-1.3827169578	-0.5187699933	 0.0065230413	 0.364913
C	-2.5154859957	-0.9164584108	 0.0485785242	-0.495646
C	 0.6878411906	-0.4837317348	-1.2154940826	 0.364905
C	 1.2818223248	-0.8524123063	-2.1924036961	-0.495642
H	 0.9975878626	 1.927577243	-0.0084466283	 0.124726
H	-0.5504831924	 1.9217975238	-0.8791736737	 0.136038
H	-0.5363488489	 1.9016745014	 0.8968106732	 0.124722
H	 0.2412231932	-0.1796310822	 2.1547785839	 0.124726
H	 0.7727408203	-1.6198433288	 1.2614690431	 0.136038
H	 1.7751690992	-0.1536502424	 1.2495382615	 0.124722
H	-3.5146145037	-1.2756351675	 0.0710193883	 0.198436
H	 1.7932079507	-1.1869139039	-3.0609446846	 0.198435
129.7724	177.2833	179.614	235.5328	236.2919	288.6832	347.8818	461.9419	489.2928	562.1551	575.2986	632.5178	634.1582	642.6663	644.642	674.0374	897.2952	940.546	956.4778	1038.3503	1138.3206	1210.9181	1244.4472	1391.9995	1414.7938	1478.5384	1481.7731	1491.9737	1506.3033	2234.9075	2240.7867	3045.6249	3048.9802	3123.5886	3128.4894	3136.7247	3138.0772	3501.2093	3501.9804
CC(C)(C#C)C#C	CC(C)(C#C)C#C	
InChI=1S/C7H8/c1-5-7(3,4)6-2/h1-2H,3-4H3	InChI=1S/C7H8/c1-5-7(3,4)6-2/h1-2H,3-4H3
