14
gdb 4561	4.03032	1.8005	1.25528	2.1071	61.58	-0.1781	0.0491	0.2272	910.3017	0.106394	-415.875232	-415.867122	-415.866178	-415.908355	28.307	
C	-0.0126605906	 1.4345547668	-0.1030210241	-0.340426
N	-0.0220895027	-0.0061014192	-0.0219942389	-0.088917
C	-1.160544419	-0.8407165543	-0.0056820101	-0.241577
C	-0.7016763224	-2.0931092121	 0.0409273071	 0.372414
O	-1.317830162	-3.2777786336	 0.141158219	-0.420403
O	 0.6760755129	-2.1026786136	 0.0357633352	-0.256215
C	 1.1109766245	-0.7779557482	-0.0224197321	 0.467945
N	 2.3157612952	-0.3807271604	-0.0678362647	-0.613188
H	 1.028689522	 1.7558296394	-0.0661276728	 0.179269
H	-0.4624831005	 1.7860043353	-1.0395359001	 0.129009
H	-0.557392792	 1.8784924265	 0.7378409544	 0.129947
H	-2.1641418506	-0.4577601993	-0.0168518887	 0.145783
H	-0.7280977496	-3.9581833485	-0.2061106274	 0.313276
H	 2.9621445948	-1.1627518088	-0.0411115668	 0.223082
53.2564	106.0904	125.8998	196.8466	287.3656	299.6738	346.1951	543.476	606.0273	615.2906	675.5865	680.2437	682.5763	725.8871	846.9314	982.2681	1005.8771	1063.7499	1158.3298	1168.2516	1181.3104	1250.5525	1334.039	1360.9728	1435.6031	1475.029	1493.4065	1515.6265	1759.5652	1814.2171	3019.823	3071.7786	3154.4871	3306.8676	3558.6643	3799.673
CN1C=C(O)OC1=N	CN1C=C(O)O[C@H]1[NH]	
InChI=1S/C4H6N2O2/c1-6-2-3(7)8-4(6)5/h2,5,7H,1H3	InChI=1S/C4H7N2O2/c1-6-2-3(7)8-4(6)5/h2,4-5,7H,1H3/t4-/m0/s1
