15
gdb 262	8.69227	1.82351	1.56698	3.4104	53.75	-0.243	0.0359	0.2789	778.0458	0.130316	-287.736841	-287.729087	-287.728143	-287.769373	26.19	
C	-0.0178915212	 1.5625758257	 0.0243885815	-0.387132
C	-0.0141971191	 0.033709809	 0.0799411391	-0.149245
C	-1.4122068601	-0.5689615941	-0.0754047673	-0.291844
C	-1.3871776885	-2.0943346363	-0.1630469253	 0.404911
N	-2.5503677307	-2.7089439266	 0.2104590045	-0.521937
O	-0.4168127195	-2.7221278928	-0.5398705115	-0.357264
H	 0.9938245424	 1.9634976954	 0.1390385852	 0.115432
H	-0.4123169294	 1.925271165	-0.9317790232	 0.112378
H	-0.636922395	 1.9931435992	 0.819944014	 0.109786
H	 0.6258703864	-0.3800702046	-0.7045671256	 0.125611
H	 0.4185998934	-0.3047251703	 1.0287081332	 0.103817
H	-2.0703809225	-0.2492796465	 0.7424483331	 0.099234
H	-1.8758752317	-0.1983622675	-1.0010067672	 0.123099
H	-3.381091594	-2.1896158287	 0.4332724954	 0.25493
H	-2.6270163404	-3.7029408568	 0.0685046442	 0.258224
31.2514	92.2666	168.6101	183.6835	246.5531	341.6241	425.1323	514.5321	613.9765	658.7098	749.8631	840.314	886.8528	928.0203	1050.0608	1074.9484	1115.5535	1135.6788	1250.334	1264.9336	1319.6299	1358.6088	1406.9609	1414.2443	1464.4869	1490.5205	1500.326	1509.2911	1616.5831	1798.1233	3010.3154	3026.2716	3041.0506	3050.2806	3078.7823	3101.6351	3104.8695	3600.1022	3736.9425
CCCC(N)=O	CCCC(=O)N	
InChI=1S/C4H9NO/c1-2-3-4(5)6/h2-3H2,1H3,(H2,5,6)	InChI=1S/C4H9NO/c1-2-3-4(5)6/h2-3H2,1H3,(H2,5,6)
