14
gdb 4090	3.57913	1.91715	1.28535	2.811	63.92	-0.252	-0.0441	0.2079	892.5536	0.108073	-415.827331	-415.820243	-415.819298	-415.858889	26.125	
O	-0.0167957594	 1.3193085611	 0.1616436769	-0.345356
N	 0.0232251897	-0.0584273593	 0.114483379	-0.213927
C	-1.1209752958	-0.6149419613	 0.0132150761	 0.304386
C	-1.2560449132	-2.1163784061	-0.0502236673	-0.304584
C	-2.7086936604	-2.3088688577	 0.4047671498	-0.093368
O	-3.3854538518	-1.0820583525	 0.075034277	-0.246047
C	-2.4949896662	-0.0447656401	-0.0386908542	 0.362816
N	-2.8282325901	 1.165856876	-0.1869277136	-0.519124
H	 0.9158101354	 1.5471920713	 0.253622869	 0.31295
H	-1.1279713556	-2.4640340243	-1.0820580647	 0.13514
H	-0.5296175034	-2.6363094917	 0.5755489019	 0.135236
H	-3.2287119911	-3.1221096705	-0.1047830933	 0.125697
H	-2.7765849616	-2.4690761133	 1.4875331294	 0.120593
H	-3.8479150162	 1.2457255084	-0.1861168863	 0.225589
81.8232	167.2141	226.3879	296.417	335.392	424.3298	489.354	512.6296	669.6933	677.2033	745.4648	750.9203	868.9084	894.395	955.3261	1005.3639	1034.3909	1078.8599	1082.9156	1195.6558	1207.4543	1241.678	1294.5371	1316.5915	1397.3453	1431.8771	1478.117	1524.7463	1734.5016	1748.9711	3033.2625	3042.2887	3111.5393	3126.2933	3460.0022	3796.8628
ON=C1CCOC1=N	ON=C1CCO[C]1[NH]	
InChI=1S/C4H6N2O2/c5-4-3(6-7)1-2-8-4/h5,7H,1-2H2	InChI=1S/C4H6N2O2/c5-4-3(6-7)1-2-8-4/h5,7H,1-2H2
