11
gdb 406	6.09849	3.15469	2.5059	3.5524	47.42	-0.2828	0.0136	0.2964	521.6025	0.084237	-285.282853	-285.276998	-285.276054	-285.311886	21.226	
O	-0.0485023841	 1.3746641256	-0.0698426214	-0.438479
C	-0.0019156923	-0.0182411101	-0.0033849638	 0.27696
C	-0.4694185969	-0.7093461282	 1.267068998	-0.310305
C	-1.3429947688	-0.7034031146	 0.0407563587	-0.284434
C	 1.0722781496	-0.6295573864	-0.7582632677	 0.232351
N	 1.9520278258	-1.0972764773	-1.3458687851	-0.342018
H	 0.7346958984	 1.7262307662	 0.3700582777	 0.297703
H	 0.0172597512	-1.6326239703	 1.5581535467	 0.142144
H	-0.7366002494	-0.0429273844	 2.0789987283	 0.135319
H	-2.1921268218	-0.0304978072	 0.0268220819	 0.145575
H	-1.4643963717	-1.6220287933	-0.5197090233	 0.145184
182.5149	210.7333	337.564	369.0871	390.5304	575.5258	595.7872	669.454	772.3218	893.7233	911.6095	936.9603	1005.9982	1062.7179	1088.5593	1194.115	1254.7119	1290.266	1373.8399	1450.5119	1485.026	2348.7841	3144.7616	3152.4192	3236.4073	3251.1802	3790.8599
OC1(CC1)C#N	OC1(CC1)C#N	
InChI=1S/C4H5NO/c5-3-4(6)1-2-4/h6H,1-2H2	InChI=1S/C4H5NO/c5-3-4(6)1-2-4/h6H,1-2H2
