10
gdb 4216	6.25917	2.72039	1.89624	1.9091	49.34	-0.2718	-0.0449	0.2269	587.8896	0.069165	-363.517297	-363.512453	-363.511509	-363.545987	17.794	
F	-0.0088480888	 0.0515373093	 0.0039792222	-0.057791
C	-0.0131635184	 1.374783574	 0.0105741445	 0.359853
N	-1.1890056449	 1.9601509247	 0.0292324975	-0.293101
C	-1.1634413049	 3.2975912739	 0.0355438648	 0.081403
N	-0.087321036	 4.0789911546	 0.0249810198	-0.248539
C	 1.0901150883	 3.4409681475	 0.0060493601	 0.037219
C	 1.197869822	 2.0585341737	-0.0022414237	-0.272429
H	-2.1301100645	 3.794097411	 0.0509000746	 0.133147
H	 1.9808958595	 4.0639710409	-0.0027911547	 0.130823
H	 2.1468577076	 1.5391885903	-0.0175195952	 0.129416
216.2656	393.3646	439.0528	555.8899	565.2827	684.2047	798.8898	860.7605	879.0506	987.4993	1006.8743	1023.2053	1079.4933	1198.3754	1265.2644	1328.1144	1340.5457	1422.3693	1509.897	1612.082	1625.4089	3167.046	3175.6073	3225.1753
FC1=NC=NC=C1	Fc1ncncc1	
InChI=1S/C4H3FN2/c5-4-1-2-6-3-7-4/h1-3H	InChI=1S/C4H3FN2/c5-4-1-2-6-3-7-4/h1-3H
