19
gdb 4157	2.67711	1.63885	1.07757	0.7493	75.64	-0.2408	0.0085	0.2493	1123.4515	0.16428	-365.018586	-365.009783	-365.008839	-365.052241	32.218	
C	 0.1243079223	 1.695721793	-0.1620227554	-0.384438
C	 0.0803790312	 0.1755944241	 0.0205183914	-0.185994
C	 0.62225206	-0.5940760478	-1.1834023376	-0.049647
C	 0.559815376	-2.1602353888	-1.1556037862	-0.250369
C	-0.1048699227	-2.1651302368	-2.5678014358	-0.317424
C	-0.220317792	-0.6596073402	-2.4491205299	 0.412855
N	-0.8481402505	 0.2550404867	-3.0602210738	-0.23677
O	-1.5648565583	-0.2696489817	-4.1555216801	-0.394299
H	 1.1529042048	 2.0452906071	-0.3065125411	 0.109186
H	-0.4569336298	 1.9958413879	-1.0380806701	 0.144583
H	-0.281861783	 2.2091984369	 0.7151316517	 0.106922
H	 0.6626323686	-0.113489447	 0.9054930756	 0.09411
H	-0.9518188131	-0.1452259163	 0.2103733335	 0.094921
H	 1.6383543193	-0.2466584154	-1.4132526045	 0.088166
H	 1.5172772201	-2.6767060258	-1.0700011258	 0.103215
H	-0.1099474992	-2.5304259424	-0.3752873473	 0.108271
H	 0.5612164829	-2.4800896184	-3.3774892878	 0.124958
H	-1.0493344854	-2.7038435333	-2.6782259591	 0.127132
H	-1.9904941715	 0.516920298	-4.5127922577	 0.304623
58.1322	112.8267	146.1473	196.1321	234.902	256.5701	341.0378	381.1013	423.6808	487.3597	570.2111	669.5895	758.7106	787.2182	808.3369	904.743	932.8318	966.3266	980.9007	996.8324	1049.0003	1063.7402	1127.3277	1151.8114	1182.2061	1213.5847	1230.8388	1254.7841	1267.888	1291.2283	1339.5929	1374.8522	1402.6958	1413.3318	1459.5784	1485.6735	1489.9395	1498.7544	1512.2694	1777.212	3014.0659	3017.4866	3033.2547	3052.8531	3055.8168	3068.744	3097.67	3102.5044	3122.394	3126.6985	3819.3225
CCC1CCC1=NO	CC[C@H]1CCC1=NO	
InChI=1S/C6H11NO/c1-2-5-3-4-6(5)7-8/h5,8H,2-4H2,1H3	InChI=1S/C6H11NO/c1-2-5-3-4-6(5)7-8/h5,8H,2-4H2,1H3/t5-/m0/s1
