16
gdb 688	6.26967	3.38781	2.82139	0.2782	59.74	-0.2504	0.0931	0.3435	545.883	0.143977	-234.470813	-234.465	-234.464056	-234.49964	22.557	
C	-0.0998485058	 1.5788807943	 0.0383531161	-0.402415
C	 0.0700807857	 0.0644589251	 0.0308817548	 0.041819
C	 1.1488624678	-0.5868359593	-0.9075034744	-0.249416
C	 1.757581895	-1.2945854024	 0.3096536271	-0.032087
C	 2.2038562249	-0.2783050991	 1.320716446	-0.271777
C	 0.7412096535	-0.6204856738	 1.2341977239	-0.050078
H	 0.8473408305	 2.0916844804	 0.2350905732	 0.113296
H	-0.4755537949	 1.9371178116	-0.9267682091	 0.111
H	-0.812836503	 1.8909620769	 0.8098158407	 0.111957
H	-0.8992714314	-0.4059452226	-0.1630329559	 0.071586
H	 0.7102291954	-1.2649637659	-1.6428196541	 0.098825
H	 1.8175302442	 0.1063472309	-1.4307815581	 0.090074
H	 2.1183994465	-2.3158369812	 0.3266246145	 0.080789
H	 2.7147082086	-0.6780201435	 2.1911100512	 0.107157
H	 2.5773756688	 0.691165505	 0.9986113177	 0.102101
H	 0.2127878443	-1.0375935661	 2.0839509067	 0.07717
188.9888	214.3771	289.0129	392.459	499.713	648.873	766.5661	787.9624	823.1522	865.7427	923.7387	948.8849	974.5733	990.1968	1027.171	1063.7747	1076.8277	1094.3192	1108.7511	1136.2051	1176.3158	1215.4678	1244.4102	1268.6797	1305.7899	1364.022	1370.0513	1409.6328	1479.7899	1491.2995	1497.0358	1500.4325	3025.8079	3036.2945	3045.7996	3089.6769	3097.0765	3103.5927	3108.3676	3168.5399	3181.0426	3198.3895
CC1CC2CC12	C[C@H]1C[C@H]2C[C@@H]12	
InChI=1S/C6H10/c1-4-2-5-3-6(4)5/h4-6H,2-3H2,1H3	InChI=1S/C6H10/c1-4-2-5-3-6(4)5/h4-6H,2-3H2,1H3/t4-,5-,6-/m0/s1
