15
gdb 2953	6.05336	1.89231	1.5841	1.2012	52.62	-0.257	0.08	0.3371	766.6366	0.126193	-382.77957	-382.772776	-382.771832	-382.810949	24.034	
O	 0.1080554171	 1.3242709347	 0.1959379381	-0.420479
C	 0.015031968	-0.0791392076	 0.084568885	-0.064835
C	-1.4239219942	-0.5242128106	-0.1514709294	 0.083083
C	-1.6316322388	-2.0563341292	-0.1475631869	-0.130499
O	-2.7440567744	-2.2558823555	 0.7140786503	-0.230174
C	-2.6702289621	-1.2102710093	 1.6444394957	 0.022108
O	-2.2478946899	-0.063605351	 0.9331138655	-0.274819
H	-0.5549079293	 1.5824229501	 0.8477507437	 0.291109
H	 0.6448243044	-0.3783552444	-0.7614801625	 0.110164
H	 0.4042880952	-0.585516089	 0.984467366	 0.084306
H	-1.8042253324	-0.0558087598	-1.0657668979	 0.096945
H	-1.8795502716	-2.464893	-1.1288268812	 0.125176
H	-0.7393801564	-2.5737977737	 0.2389463359	 0.099596
H	-3.6640779364	-1.0309682245	 2.0640158817	 0.12423
H	-1.9537051391	-1.4502512703	 2.4516600859	 0.084089
60.0113	123.1637	213.3737	281.105	393.5385	458.9063	478.6716	693.5285	742.6884	835.6754	922.3129	970.2765	1014.6066	1040.7815	1068.9063	1100.4945	1117.1489	1139.7071	1182.5629	1213.299	1233.2452	1264.8969	1305.9533	1357.6155	1369.557	1397.6337	1430.4712	1440.7144	1497.7393	1514.6283	1544.205	2930.4117	2960.1654	2984.7159	3049.9219	3066.2391	3090.7553	3112.3154	3790.4723
OCC1COCO1	OC[C@H]1COCO1	
InChI=1S/C4H8O3/c5-1-4-2-6-3-7-4/h4-5H,1-3H2	InChI=1S/C4H8O3/c5-1-4-2-6-3-7-4/h4-5H,1-3H2/t4-/m0/s1
