14
gdb 674	5.9367	4.46406	3.25447	1.3987	51.92	-0.2271	0.0914	0.3186	466.8514	0.121999	-270.417842	-270.412868	-270.411924	-270.445903	19.348	
C	-0.0862698362	 1.4095396401	 0.2938981493	-0.324755
C	 1.3080555491	 0.8791755117	-0.0033062275	-0.064408
C	 2.1072196263	 0.3305525576	 1.168717913	-0.234463
C	 1.0995170317	-0.6141060323	 1.8649536079	-0.086464
O	 0.1562660766	-1.0189661626	 0.8723519457	-0.254237
C	 0.1161445647	-0.0262754876	-0.1191256776	 0.129632
H	-0.3641513467	 1.6313007151	 1.3191344326	 0.115131
H	-0.5250470996	 2.0778976999	-0.4393169448	 0.111974
H	 1.8393455141	 1.2454772666	-0.8735860809	 0.08832
H	 2.9704263657	-0.2270933316	 0.7903339769	 0.108048
H	 2.478340961	 1.0978445259	 1.8550479702	 0.104175
H	 1.5594009813	-1.5159812841	 2.2783957122	 0.109568
H	 0.5844876691	-0.0947037394	 2.6850480691	 0.098296
H	-0.2800831972	-0.4029815191	-1.0544686964	 0.099183
221.6819	302.2181	435.9996	655.6106	692.2224	758.0571	807.5331	861.5105	899.8367	923.9214	958.1905	992.4604	1007.8979	1043.1678	1077.4064	1101.1823	1134.4944	1166.0616	1200.0053	1219.5413	1243.4989	1309.2445	1316.5604	1379.8647	1402.5312	1479.6145	1494.7744	1531.0195	3003.8569	3045.3756	3080.579	3093.3414	3130.737	3177.0819	3187.8492	3216.4992
C1C2CCOC12	C1[C@H]2CCO[C@@H]12	
InChI=1S/C5H8O/c1-2-6-5-3-4(1)5/h4-5H,1-3H2	InChI=1S/C5H8O/c1-2-6-5-3-4(1)5/h4-5H,1-3H2/t4-,5+/m1/s1
