17
gdb 590	11.0212	1.70786	1.62134	1.0196	61.14	-0.2296	0.0931	0.3227	802.0898	0.154458	-251.727632	-251.720578	-251.719634	-251.758499	25.133	
C	-0.1042608306	 1.5040875527	 0.02650747	-0.380053
C	-0.0824528476	-0.0172099859	-0.1425407415	-0.164196
C	 0.9393174931	-0.4789826441	-1.1813201306	-0.117074
N	 0.9713578155	-1.9345036122	-1.2806724258	-0.059611
C	 0.0442473605	-2.5354594422	-2.2342674002	-0.218438
C	 1.5048833988	-2.4857031315	-2.5199755069	-0.220504
H	 0.8715502187	 1.8818517199	 0.3516460236	 0.114821
H	-0.3556719803	 2.0073037693	-0.9139796041	 0.112889
H	-0.8433288803	 1.8092606555	 0.7732965934	 0.114021
H	 0.1484079198	-0.502887478	 0.8123099459	 0.108099
H	-1.0775772967	-0.3735027912	-0.4372465062	 0.09667
H	 0.7175880414	-0.0056603245	-2.1574657393	 0.072393
H	 1.9426775633	-0.143614212	-0.88864459	 0.099107
H	-0.4284815938	-3.4617755261	-1.9205704726	 0.114947
H	-0.5957691889	-1.8699706689	-2.8127319143	 0.106029
H	 1.8351373108	-1.7880903659	-3.2887219997	 0.106207
H	 2.1204908964	-3.3750158749	-2.4178299718	 0.114692
98.1791	104.1637	182.468	237.8931	343.8913	390.9325	449.8726	758.4635	769.1436	836.956	893.0969	901.2684	912.782	1025.3242	1028.4389	1057.9294	1110.7359	1115.7503	1126.1261	1154.6358	1180.2677	1212.5015	1279.0845	1317.2129	1327.5695	1330.3596	1406.9281	1414.7219	1485.0383	1491.6199	1497.3942	1500.4441	1511.0583	1523.6229	2915.2731	3026.942	3029.6353	3038.5822	3067.5859	3089.1281	3093.983	3097.2218	3104.5718	3173.0004	3187.379
CCCN1CC1	CCCN1CC1	
InChI=1S/C5H11N/c1-2-3-6-4-5-6/h2-5H2,1H3	InChI=1S/C5H11N/c1-2-3-6-4-5-6/h2-5H2,1H3
