16
gdb 2835	5.02496	1.76969	1.45149	0.8597	67.95	-0.2287	0.0347	0.2634	865.3855	0.135106	-288.576381	-288.568685	-288.567741	-288.608094	28.131	
C	-0.1230041695	 1.569276166	-0.2774471583	-0.375782
C	-0.0060856873	 0.1519095439	 0.2755469257	-0.11541
N	-1.2988753993	-0.5275272005	 0.1886112572	-0.079954
C	-1.5842345707	-1.2532339615	-1.0355913306	-0.242488
C	-1.321840406	-2.0007774754	 0.2398235586	-0.176138
C	-0.1212370514	-2.7779535369	 0.3878530458	 0.343962
C	 0.8666986612	-3.4444714874	 0.553733324	-0.474237
H	 0.8294317505	 2.0988025927	-0.1785231168	 0.113744
H	-0.3928384994	 1.5556933529	-1.3386678407	 0.117073
H	-0.8922974737	 2.1316703215	 0.2590661247	 0.127365
H	 0.7883265961	-0.3988201867	-0.2523463214	 0.097102
H	 0.2775376363	 0.1807019416	 1.3336040615	 0.109025
H	-2.5996308854	-1.1817508124	-1.4162932081	 0.120466
H	-0.8063125977	-1.3082530808	-1.795705833	 0.118894
H	-2.1772887486	-2.3941694494	 0.7846643067	 0.116879
H	 1.7393826549	-4.0339785877	 0.6894192147	 0.199497
86.4882	125.4991	194.0058	238.1802	262.0114	363.3035	410.2689	531.6554	594.5035	627.0992	661.6811	729.9525	803.8604	811.6917	904.1222	962.6094	1029.9924	1046.1655	1098.8305	1111.9599	1133.5897	1144.605	1200.6207	1307.0224	1318.4976	1369.0925	1384.5736	1410.818	1488.2197	1490.0031	1501.6752	1516.9543	2231.0148	2981.4712	3038.9083	3060.0346	3092.8582	3108.1435	3119.4926	3126.2404	3183.135	3503.922
CCN1CC1C#C	CCN1C[C@H]1C#C	
InChI=1S/C6H9N/c1-3-6-5-7(6)4-2/h1,6H,4-5H2,2H3	InChI=1S/C6H9N/c1-3-6-5-7(6)4-2/h1,6H,4-5H2,2H3/t6-,7?/m1/s1
