13
gdb 2008	6.58704	2.02216	2.02202	2.2787	58.82	-0.2625	0.0136	0.2761	665.0279	0.104034	-303.428586	-303.423028	-303.422084	-303.457907	21.087	
N	 0.0219587794	-1.1432557811	-0.0088465368	-0.335219
C	 0.0064771359	 0.0127782222	-0.006738403	 0.140089
C	-0.0117699757	 1.4622184088	-0.0030566615	 0.197896
C	-0.6576349718	 2.4301675661	 1.0201967113	-0.195929
N	-0.0362478075	 3.4013341854	 0.0017946687	-0.145196
C	 1.1765625113	 2.4557687533	 0.0375267572	-0.195945
C	-0.5917994742	 2.4362901436	-1.0593703994	-0.195925
H	-1.7480296057	 2.4704915345	 1.0602635107	 0.12173
H	-0.2103573359	 2.4877597674	 2.0145618645	 0.121684
H	 1.7554502986	 2.5150409696	 0.9614094723	 0.121736
H	 1.8129089646	 2.5201917614	-0.8474228364	 0.121713
H	-0.0826517283	 2.4994370527	-2.0232053654	 0.121663
H	-1.6775003307	 2.477087286	-1.1681130521	 0.121703
173.1388	175.0548	510.6242	511.0972	524.7364	598.7291	600.1289	793.4329	794.1914	885.0351	943.2403	986.1127	1002.1815	1003.9329	1019.9734	1144.5701	1145.0414	1165.7728	1166.5255	1202.9449	1203.3333	1249.6103	1297.4436	1510.7877	1512.4853	1563.3856	2349.7348	3066.1679	3066.6712	3074.2419	3138.1471	3143.5007	3143.7818
N#CC12CN(C1)C2	N#C[C@@]12CN(C1)C2	
InChI=1S/C5H6N2/c6-1-5-2-7(3-5)4-5/h2-4H2	InChI=1S/C5H6N2/c6-1-5-2-7(3-5)4-5/h2-4H2
