12
gdb 41	28.29567	4.14901	3.88349	1.0363	39.34	-0.2503	0.0925	0.3428	368.9331	0.107895	-194.254127	-194.248585	-194.247641	-194.281899	17.888	
C	-0.0051955091	 1.5086822402	 0.033087601	-0.382641
C	 0.0131657995	-0.0103781921	 0.0198864348	-0.024944
O	 0.6975894438	-0.4634413956	 1.168689786	-0.22433
C	 0.7668849139	-1.8650818258	 1.246026692	-0.224654
H	 1.0144547599	 1.9042379883	 0.0299601808	 0.12631
H	-0.5299086599	 1.8918405908	-0.8472691148	 0.112998
H	-0.5126376519	 1.8780584257	 0.9287542375	 0.126301
H	-1.0159950694	-0.4099872881	 0.0071428235	 0.082556
H	 0.5109314318	-0.3836943515	-0.8921939464	 0.082561
H	-0.2341584086	-2.3245148878	 1.2897777955	 0.100519
H	 1.3012927589	-2.2985366276	 0.3848609518	 0.100516
H	 1.3099028713	-2.1181199764	 2.1601320584	 0.124806
116.0712	215.0791	263.3299	287.1976	466.7441	821.8702	868.8458	1033.8222	1115.8005	1165.0062	1169.9314	1204.4193	1240.2687	1296.3859	1398.1077	1425.9215	1482.0684	1483.5556	1485.7714	1498.8031	1507.1503	1534.6013	2944.1379	2965.6729	2968.6963	3004.7212	3044.8266	3110.7202	3119.1545	3121.5711
CCOC	CCOC	
InChI=1S/C3H8O/c1-3-4-2/h3H2,1-2H3	InChI=1S/C3H8O/c1-3-4-2/h3H2,1-2H3
