17
gdb 4832	4.60697	1.3221	1.09679	0.807	71.99	-0.1742	0.0604	0.2347	1093.2298	0.142589	-363.903689	-363.89542	-363.894475	-363.936524	30.608	
C	 0.041253032	 1.5084227467	-0.2721829419	-0.364332
C	-0.0359749015	 0.0264075958	 0.1394222103	-0.299071
C	-1.4236551277	-0.5273149055	 0.1765147554	 0.300935
C	-2.2099871469	-0.9482260823	 1.2191365134	-0.213719
C	-3.4749669155	-1.3729523118	 0.6979281586	-0.293004
C	-3.407275502	-1.1913735143	-0.6605721981	 0.362519
O	-4.2768954003	-1.4120177535	-1.6819902542	-0.438011
N	-2.1808472349	-0.6833818134	-0.9789755799	-0.339627
H	 1.0778684718	 1.860787486	-0.2778315503	 0.109807
H	-0.3684458574	 1.667408832	-1.2756299304	 0.106614
H	-0.532088962	 2.1325144429	 0.4196484216	 0.124034
H	 0.5957575588	-0.5659014677	-0.5385778871	 0.098134
H	 0.3966249912	-0.0964374889	 1.1376456594	 0.112718
H	-1.9140696407	-0.9547573848	 2.2576486605	 0.085908
H	-4.3159197074	-1.7619720632	 1.2509163323	 0.081657
H	-5.0883542799	-1.7709176273	-1.3111852261	 0.305963
H	-1.8871754176	-0.4733410108	-1.9172024035	 0.259474
56.7534	130.1039	193.6269	228.6742	266.1086	307.0425	395.4917	423.0755	449.1551	600.3888	646.6286	680.1031	707.703	730.1773	780.7177	802.1388	945.2522	1004.7736	1022.1406	1046.3234	1073.8317	1085.8587	1171.6641	1215.4663	1255.2161	1297.7334	1314.7932	1358.0473	1406.9872	1430.3827	1478.5534	1495.8546	1503.2859	1532.4399	1574.5222	1646.9442	2998.2701	3032.225	3070.9185	3099.8094	3112.5666	3236.4233	3251.2795	3679.8345	3850.1874
CCC1=CC=C(O)N1	CCc1ccc(O)[nH]1	
InChI=1S/C6H9NO/c1-2-5-3-4-6(8)7-5/h3-4,7-8H,2H2,1H3	InChI=1S/C6H9NO/c1-2-5-3-4-6(8)7-5/h3-4,7-8H,2H2,1H3
