17
gdb 3021	5.42747	1.56668	1.31654	2.5836	60.39	-0.2534	0.0657	0.3191	918.6232	0.147887	-346.832402	-346.824584	-346.82364	-346.864458	28.675	
O	 0.0901503139	 1.3802575634	 0.0039275612	-0.425692
C	 0.0311143553	-0.0206770265	 0.1522322835	-0.057399
C	-1.4021234035	-0.5312552219	-0.0271770813	 0.08647
O	-1.9263779448	 0.0038292607	-1.2532444023	-0.443946
C	-1.503384219	-2.0338127496	 0.0413801409	-0.003338
C	-1.7753670229	-2.7164804579	 1.3615079568	-0.265306
C	-2.8364920996	-2.6909224349	 0.2928790645	-0.26991
H	-0.5005508829	 1.5773990355	-0.7355417179	 0.283758
H	 0.6853600281	-0.5332878947	-0.5782299862	 0.067127
H	 0.4019460786	-0.2691026244	 1.1524868797	 0.108939
H	-2.0301783277	-0.0822190265	 0.7517205356	 0.089734
H	-1.568098022	-0.5217031816	-1.9778804036	 0.280811
H	-0.8261488666	-2.5565817567	-0.6327062563	 0.077789
H	-1.2677370207	-3.6519617711	 1.5670614614	 0.115728
H	-1.9180421387	-2.0881261758	 2.2345000177	 0.118541
H	-3.6924046693	-2.0408282618	 0.4386195365	 0.123012
H	-3.0615107682	-3.6124438063	-0.23210651	 0.113684
76.0938	130.5164	167.8194	256.2353	287.8663	311.0684	417.2494	476.8027	522.5008	543.0276	776.6191	831.6713	848.8485	894.1516	938.7376	964.1003	1053.9746	1071.243	1078.2243	1084.3601	1105.0916	1134.9674	1152.2303	1199.1784	1214.0745	1225.8106	1276.9235	1300.1233	1382.3781	1402.9149	1432.9929	1448.1944	1472.636	1505.7229	1507.431	2926.6135	3044.5534	3071.5828	3114.6869	3133.8662	3138.8808	3212.642	3227.3032	3756.3442	3796.4396
OCC(O)C1CC1	OC[C@@H](O)C1CC1	
InChI=1S/C5H10O2/c6-3-5(7)4-1-2-4/h4-7H,1-3H2	InChI=1S/C5H10O2/c6-3-5(7)4-1-2-4/h4-7H,1-3H2/t5-/m1/s1
