15
gdb 2938	6.09771	2.08735	1.72623	0.8742	59.	-0.2526	0.0095	0.2621	744.1805	0.125089	-345.648365	-345.641555	-345.640611	-345.679359	24.232	
C	 0.0031290076	 1.3211619165	-0.2091867386	-0.238719
O	-0.0535914031	-0.0908639431	-0.120267995	-0.239232
C	-1.3366077561	-0.5824586314	 0.1680585739	 0.18764
O	-2.2528800601	-0.3832298045	-0.8992715992	-0.267574
C	-2.5237441273	-1.6225661861	-1.5484069926	-0.119714
C	-1.9048277433	-2.6660990118	-0.6629067486	-0.086336
C	-1.2525861211	-2.0768222905	 0.3308597534	-0.105619
H	 1.0481381155	 1.5898947523	-0.3787643473	 0.12457
H	-0.6077233486	 1.6963534246	-1.0390541185	 0.125036
H	-0.3407227667	 1.7960310597	 0.7228081233	 0.102692
H	-1.7374712037	-0.0417333137	 1.0420500508	 0.068
H	-3.61209104	-1.7356699419	-1.6468862314	 0.11323
H	-2.09780834	-1.6390357807	-2.5637299076	 0.112649
H	-1.9879532175	-3.7286098819	-0.8527908494	 0.110623
H	-0.6827289156	-2.5430248975	 1.1224767568	 0.112755
97.9762	124.2757	182.856	242.6409	363.7609	479.3245	538.9545	716.7496	782.5939	822.5525	930.032	942.109	958.2247	990.9769	1019.26	1038.7932	1086.0346	1118.7167	1139.0911	1177.7409	1200.1268	1215.4503	1313.0811	1367.3424	1388.7541	1399.2989	1475.4505	1483.6938	1511.3056	1512.4119	1692.1902	2960.005	2986.0738	2987.0055	3024.4879	3059.399	3122.1138	3213.8068	3243.1241
COC1OCC=C1	CO[C@H]1OCC=C1	
InChI=1S/C5H8O2/c1-6-5-3-2-4-7-5/h2-3,5H,4H2,1H3	InChI=1S/C5H8O2/c1-6-5-3-2-4-7-5/h2-3,5H,4H2,1H3/t5-/m0/s1
