11
gdb 1941	8.25538	1.68472	1.59494	3.8907	53.22	-0.2784	0.0006	0.279	741.7742	0.077382	-343.240623	-343.23439	-343.233446	-343.270891	22.38	
O	 0.1225686073	 0.1981062059	-0.5615724748	-0.304515
C	-0.0368803284	 1.2552036007	-0.0474732005	 0.454429
C	-1.1979040733	 2.1853313601	 0.3012888036	-0.4228
C	-0.0840264307	 3.0786858234	 0.9012704434	-0.046221
O	 0.9241064424	 2.0837986182	 0.4818367986	-0.236824
C	 0.1288525363	 4.3815631154	 0.3105242742	 0.340069
C	 0.2856250867	 5.4699255975	-0.1727280377	-0.4425
H	-1.7179288607	 2.6010444137	-0.5617736276	 0.159213
H	-1.9152735045	 1.7729151633	 1.0116463152	 0.152317
H	-0.0934986953	 3.134513557	 1.9929063239	 0.131419
H	 0.4319194104	 6.4318047149	-0.5996551983	 0.215414
90.3172	175.8527	251.6222	451.5046	496.4957	519.4457	559.5343	637.9314	684.8177	743.0357	808.2615	896.7265	954.2858	1021.6585	1071.5769	1109.453	1140.6458	1221.2455	1275.4939	1365.7	1452.4228	1949.6493	2245.0765	3080.0768	3100.1827	3162.8817	3500.8731
O=C1CC(O1)C#C	O=C1C[C@@H](O1)C#C	
InChI=1S/C5H4O2/c1-2-4-3-5(6)7-4/h1,4H,3H2	InChI=1S/C5H4O2/c1-2-4-3-5(6)7-4/h1,4H,3H2/t4-/m0/s1
