16
gdb 3434	4.77815	2.65915	1.93099	1.4841	66.11	-0.2235	0.0247	0.2482	699.4324	0.138383	-288.628466	-288.622198	-288.621254	-288.658226	24.413	
C	-0.0206458917	 1.4992198826	 0.0653587321	-0.502181
C	-0.02434019	 0.0053742479	 0.0018335884	 0.378713
C	 0.0065210843	-0.7733303092	-1.0854291026	-0.175329
C	-0.003275588	-2.2526252331	-0.7570745305	-0.253125
C	 0.0253276865	-2.2627335014	 0.768085284	-0.033489
N	 1.2430024468	-1.6534541736	 1.3471084176	-0.332945
C	-0.0112428777	-0.8508005277	 1.232016101	-0.147754
H	 0.8757106493	 1.8701216491	 0.5783944835	 0.132318
H	-0.0503741826	 1.9444404074	-0.9328354243	 0.122593
H	-0.8830912064	 1.8767506512	 0.6297845793	 0.120676
H	 0.0693521466	-0.4065959125	-2.1047153964	 0.084763
H	-0.9027112288	-2.7515844426	-1.1426851299	 0.101055
H	 0.8608465519	-2.7777168811	-1.1820761531	 0.116271
H	-0.4644342382	-3.0608026622	 1.3155780857	 0.084059
H	 1.3278453378	-1.9799067323	 2.3090661173	 0.22373
H	-0.51152546	-0.5348649027	 2.142438738	 0.080645
178.786	195.8738	288.4381	323.878	394.0089	568.3793	602.7026	733.7157	807.5219	817.7026	848.1102	855.1011	914.8572	932.1788	967.006	1000.0345	1034.9293	1060.8482	1080.9025	1132.8224	1164.8296	1186.5604	1200.0388	1249.2313	1283.7398	1330.0674	1382.9706	1412.7656	1414.9986	1467.9838	1479.6034	1490.1038	1708.4874	3015.6193	3016.0914	3054.2732	3062.165	3109.2933	3154.0626	3168.5443	3185.8529	3467.9355
CC1=CCC2NC12	CC1=CC[C@H]2N[C@@H]12	
InChI=1S/C6H9N/c1-4-2-3-5-6(4)7-5/h2,5-7H,3H2,1H3	InChI=1S/C6H9N/c1-4-2-3-5-6(4)7-5/h2,5-7H,3H2,1H3/t5-,6+/m1/s1
