21
gdb 3974	3.89225	1.03771	0.96495	0.677	78.35	-0.2384	0.0166	0.255	1314.0318	0.185482	-366.240676	-366.230361	-366.229416	-366.276382	36.801	
C	-1.4294173722	-0.8679766329	-0.0770529587	-0.387013
C	 0.0744250215	-0.6793955552	 0.159925445	 0.038255
C	 0.6078605568	-1.7093458948	 1.1637053952	-0.377315
C	 0.8398958648	-0.7469493297	-1.183092002	-0.265659
C	 2.2946221269	-0.3700124121	-1.084519512	 0.359818
C	 2.6837625364	 1.0453019123	-0.7456212086	-0.468863
N	 3.1424737355	-1.3018424539	-1.3079249258	-0.170108
O	 4.4658972191	-0.8383305681	-1.181999784	-0.402523
H	-1.8277959301	-0.1067430371	-0.7562806879	 0.108468
H	-1.6343023378	-1.8498906967	-0.5199911608	 0.114561
H	-1.9878277735	-0.8055944201	 0.8626663526	 0.110637
H	 0.2238917853	 0.3226714351	 0.5860576829	 0.074454
H	 0.4482145833	-2.7289952219	 0.7934541563	 0.114821
H	 1.680983119	-1.5888425815	 1.3368169872	 0.122083
H	 0.0949346178	-1.6196574977	 2.126873615	 0.10748
H	 0.7698967016	-1.7601858636	-1.5923559194	 0.109832
H	 0.3529669557	-0.0694010598	-1.898458851	 0.097614
H	 3.1724999238	 1.0902694661	 0.2337976506	 0.145054
H	 3.4124462455	 1.4192414061	-1.4708516706	 0.147174
H	 1.8150070822	 1.7064946	-0.7324856527	 0.117184
H	 4.9743421484	-1.6260201446	-1.4005932913	 0.304045
43.8383	71.8546	82.3821	146.7207	214.2721	246.2711	288.2629	299.0666	330.9735	378.2292	389.6208	423.5569	438.9311	546.7414	658.0979	809.0337	827.1774	894.2582	928.4937	946.0087	967.3868	984.2939	1026.5046	1034.3121	1131.4534	1137.449	1190.5921	1243.9614	1274.9879	1313.5038	1366.138	1370.4012	1397.3997	1400.1845	1401.0012	1421.9178	1471.8778	1475.8767	1484.2807	1485.528	1493.4363	1503.0068	1508.0851	1724.7763	3005.2556	3009.7129	3024.3567	3030.5855	3042.6603	3079.7668	3089.7163	3096.2012	3099.4052	3100.2746	3110.6807	3133.3306	3822.9949
CC(C)CC(C)=NO	CC(C)CC(=NO)C	
InChI=1S/C6H13NO/c1-5(2)4-6(3)7-8/h5,8H,4H2,1-3H3	InChI=1S/C6H13NO/c1-5(2)4-6(3)7-8/h5,8H,4H2,1-3H3
