19
gdb 3215	3.24168	2.98645	2.05826	0.2861	70.25	-0.2497	0.0867	0.3364	738.463	0.172126	-273.760271	-273.75306	-273.752116	-273.790846	28.148	
C	-0.4472242783	 1.5408597167	 0.3631070318	-0.403699
C	-0.1108027755	 0.0618079524	 0.2054608868	 0.009077
C	 0.28405346	-0.4625366043	-1.1839586535	-0.052345
C	 1.605594555	 0.1003029863	-1.6270414732	-0.28047
C	 1.5944632303	-1.0241589577	-0.6295045338	-0.052343
C	 1.2460183766	-0.5198634399	 0.7796216857	 0.009081
C	 2.2358725288	 0.3905674089	 1.4985958285	-0.403685
H	 0.3317585385	 2.1901638836	-0.0476194262	 0.112914
H	-1.3812590318	 1.7792925839	-0.1579628116	 0.111897
H	-0.5797033946	 1.8078663165	 1.4175104303	 0.110782
H	-0.9408485257	-0.5303244326	 0.60403651	 0.068956
H	-0.4001918137	-0.9170071763	-1.8912983355	 0.077525
H	 1.9097723783	-0.1805917801	-2.6305400695	 0.107366
H	 1.9159756957	 1.1029245249	-1.3450454778	 0.102876
H	 2.0678453948	-1.9747653314	-0.8470402115	 0.077524
H	 1.0140401613	-1.3684219286	 1.431232712	 0.068963
H	 2.5345635089	 1.2460172843	 0.8853343476	 0.112911
H	 1.8113286492	 0.7821252418	 2.4297529977	 0.110772
H	 3.1464975321	-0.1614417784	 1.7571249322	 0.111898
167.1007	206.378	214.8161	224.407	287.9037	371.1449	514.2689	528.4379	647.3652	736.102	779.1288	788.7869	881.4486	914.5381	934.428	991.3778	1000.0741	1033.7333	1039.3381	1069.7546	1079.7764	1087.4314	1108.3993	1148.8135	1168.24	1193.6938	1238.4024	1279.7399	1310.2156	1362.5142	1366.2295	1377.8655	1407.3079	1416.2875	1487.3901	1489.0305	1493.34	1503.7962	1508.636	3027.4435	3030.7099	3036.4612	3055.0246	3088.6726	3091.7762	3099.9299	3106.6193	3119.2678	3166.0797	3175.4982	3199.5001
CC1C2CC2C1C	C[C@H]1[C@H]2C[C@H]2[C@H]1C	
InChI=1S/C7H12/c1-4-5(2)7-3-6(4)7/h4-7H,3H2,1-2H3	InChI=1S/C7H12/c1-4-5(2)7-3-6(4)7/h4-7H,3H2,1-2H3/t4-,5+,6-,7+
