17
gdb 3105	3.85148	2.13542	1.78839	1.8025	60.74	-0.2271	0.0678	0.2949	791.5675	0.146597	-346.819711	-346.811482	-346.810538	-346.85215	29.127	
C	-0.0003983517	 1.1908236213	 0.4675245376	-0.244579
O	-0.0605679733	-0.0129674344	-0.2836623583	-0.25296
C	-1.3221322345	-0.6184961265	-0.2179581681	 0.052417
C	-1.4069994823	-2.0556561703	-0.6764399189	-0.107575
C	-0.224112313	-2.7719210679	-1.2890286105	-0.393841
C	-1.4541584786	-1.7228582943	 0.8071123325	 0.090929
O	-0.3476831778	-1.981655358	 1.6180074546	-0.431968
H	 1.0160571843	 1.578733354	 0.3694754686	 0.131037
H	-0.7068232357	 1.9364264452	 0.075451437	 0.115814
H	-0.2258393234	 1.0199903265	 1.5288232435	 0.122596
H	-2.1516346436	 0.0590317133	-0.4210043612	 0.083472
H	-2.3676672407	-2.3163793182	-1.1145662987	 0.086666
H	 0.7053648309	-2.5367354075	-0.7682658603	 0.120672
H	-0.3680452017	-3.8558804662	-1.238122481	 0.119576
H	-0.0966568729	-2.4949146134	-2.3403668751	 0.118425
H	-2.3846454502	-1.8579912453	 1.3495550168	 0.097372
H	 0.3688671942	-1.4264623884	 1.2828120615	 0.291948
88.7089	113.8069	147.8092	184.9342	220.8159	279.3042	331.7004	433.9363	511.3438	606.749	664.4351	736.7867	797.569	887.4014	963.1312	1002.5537	1059.1019	1097.2923	1110.4963	1141.6445	1154.6563	1157.03	1184.7452	1224.8056	1251.8151	1318.5212	1355.0886	1387.466	1419.0097	1458.1086	1482.558	1487.7868	1488.8915	1503.0158	1509.9091	2993.8271	3042.8489	3050.4733	3095.0454	3100.2907	3122.4185	3126.7893	3141.2419	3158.6565	3754.0043
COC1C(C)C1O	CO[C@H]1[C@@H](C)[C@H]1O	
InChI=1S/C5H10O2/c1-3-4(6)5(3)7-2/h3-6H,1-2H3	InChI=1S/C5H10O2/c1-3-4(6)5(3)7-2/h3-6H,1-2H3/t3-,4+,5-/m0/s1
