16
gdb 1243	6.60603	1.25987	1.1183	4.7243	62.39	-0.2789	0.0134	0.2923	1042.7896	0.134527	-325.784384	-325.775982	-325.775038	-325.817748	28.771	
C	-0.1327566874	 1.5355101919	 0.0689560628	-0.390762
C	-0.0137001174	 0.0195000738	-0.0165264292	 0.158286
C	 0.771847284	-0.5707758848	 1.1563746713	-0.397953
O	-1.3575346306	-0.4760898726	-0.0619292834	-0.249381
C	-1.4717763859	-1.8126524944	-0.474745747	-0.194196
C	-2.8871833949	-2.119877871	-0.7092860436	 0.268495
N	-3.9923829098	-2.3932440201	-0.9005066755	-0.294767
H	 0.8583369611	 1.9979154823	 0.060790961	 0.118231
H	-0.7080217692	 1.9218201736	-0.7758731244	 0.129711
H	-0.6428183994	 1.8243827211	 0.9930166494	 0.130856
H	 0.4873366165	-0.2529624647	-0.9608906241	 0.072031
H	 1.7793768255	-0.1448946803	 1.1866763952	 0.123946
H	 0.2698489137	-0.3407424828	 2.1013489616	 0.131625
H	 0.8792525996	-1.6567486026	 1.0779394024	 0.117139
H	-0.9173462519	-1.9975981306	-1.4100089044	 0.136037
H	-1.088699094	-2.5234038987	 0.2736924278	 0.140704
40.2399	98.9779	140.3725	206.4164	249.0468	282.9362	348.2917	380.9936	440.7288	467.5245	564.1589	833.9669	928.5083	932.655	946.266	955.3002	1034.5353	1116.4844	1150.9256	1165.9359	1201.3874	1252.8879	1360.0121	1368.5047	1399.8085	1416.22	1425.9605	1480.0405	1484.4943	1495.2349	1499.5303	1511.9093	2373.0824	2960.2735	2971.2365	3002.6276	3039.65	3047.14	3109.2029	3115.3341	3122.5053	3129.1818
CC(C)OCC#N	CC(C)OCC#N	
InChI=1S/C5H9NO/c1-5(2)7-4-3-6/h5H,4H2,1-2H3	InChI=1S/C5H9NO/c1-5(2)7-4-3-6/h5H,4H2,1-2H3
