14
gdb 2171	3.8518	2.93944	1.77902	2.1857	53.	-0.234	-0.0338	0.2002	682.0474	0.114535	-361.721849	-361.715404	-361.71446	-361.752165	23.983	
O	 0.3230181203	 1.2041650239	 0.5190254324	-0.436978
C	-0.0626072135	-0.0485708001	 0.0345375726	 0.060672
C	-1.5574958635	-0.2395235491	-0.2736393289	-0.211326
N	-1.6109727233	-1.3725760019	-1.2213404185	-0.296566
C	-0.4280589164	-1.2489301636	-2.0865623542	-0.279565
C	 0.5554250038	-0.3549469253	-1.3303450483	 0.357112
O	 1.5827244787	 0.1380251725	-1.723682017	-0.32317
H	 1.1339173785	 1.4361660505	 0.0410412085	 0.292478
H	 0.2520258826	-0.8603701711	 0.7193522602	 0.087024
H	-2.1678037091	-0.4476253095	 0.606339395	 0.118314
H	-1.9461656375	 0.6681541953	-0.7518579572	 0.122815
H	-1.5594464973	-2.2408985061	-0.7005502621	 0.227351
H	 0.0115184912	-2.2176545623	-2.3408519723	 0.137257
H	-0.6793535845	-0.7530277832	-3.0343371202	 0.144583
105.4167	211.1961	264.2883	361.6363	398.0634	472.5235	585.8956	595.7932	652.9003	744.8712	788.4622	905.5442	970.453	989.1564	1039.0947	1092.229	1102.7124	1177.0922	1182.9593	1247.137	1282.54	1288.9589	1324.8533	1377.7194	1409.6475	1459.4522	1463.1601	1502.5884	1845.9722	2915.7423	3019.6292	3039.35	3091.8588	3123.477	3533.4736	3709.2814
OC1CNCC1=O	O[C@H]1CNCC1=O	
InChI=1S/C4H7NO2/c6-3-1-5-2-4(3)7/h3,5-6H,1-2H2	InChI=1S/C4H7NO2/c6-3-1-5-2-4(3)7/h3,5-6H,1-2H2/t3-/m0/s1
