16
gdb 656	4.72529	4.53743	2.54778	0.2447	61.37	-0.2343	0.0337	0.268	552.2096	0.145885	-234.520624	-234.515101	-234.514157	-234.549276	21.521	
C	-0.0163531731	 1.5217746752	-0.0403364844	-0.190425
C	 1.414130094	 2.0726085843	 0.0238878041	-0.19043
C	 2.1054543108	 1.6527739997	 1.3299694852	-0.233404
C	 1.860929585	 0.201678388	 1.6581095817	-0.043184
C	 0.9296827192	-0.5425087184	 1.0618776617	-0.043131
C	-0.0160188908	-0.013533249	 0.0135801376	-0.233409
H	-0.5890219818	 1.9115768615	 0.8114038082	 0.09687
H	-0.5248137262	 1.8689185401	-0.9463212732	 0.088847
H	 1.9868852242	 1.6827747569	-0.8277790833	 0.096871
H	 1.4135848618	 3.1638968923	-0.0706682351	 0.088842
H	 3.1849198574	 1.839783729	 1.263487022	 0.098652
H	 1.7537198904	 2.2808509059	 2.1626730038	 0.103947
H	 2.4937018578	-0.2417802689	 2.4239160097	 0.078673
H	 0.8252304164	-1.5909084912	 1.3329350217	 0.078668
H	-1.0300218867	-0.3851711452	 0.2093919262	 0.098669
H	 0.2586674818	-0.4263340002	-0.9691359661	 0.103945
164.1198	276.8911	399.0701	453.9751	498.7982	656.8331	732.4539	823.2766	829.1937	883.3908	911.3241	936.3302	1007.5084	1016.0497	1048.9524	1074.2344	1096.5581	1154.5655	1160.1653	1248.3922	1267.9278	1291.9203	1351.0719	1368.4189	1373.5852	1385.4956	1420.6008	1472.5184	1478.5349	1491.2157	1500.8153	1725.5176	2993.0141	2993.0415	3017.2818	3021.353	3038.2542	3038.3939	3067.0523	3071.4333	3136.0392	3160.3704
C1CCC=CC1	C1CCC=CC1	
InChI=1S/C6H10/c1-2-4-6-5-3-1/h1-2H,3-6H2	InChI=1S/C6H10/c1-2-4-6-5-3-1/h1-2H,3-6H2
