21
gdb 1296	6.28174	1.09275	0.98845	0.9066	72.3	-0.2456	0.088	0.3336	1264.1147	0.192289	-312.128001	-312.118424	-312.11748	-312.162713	33.453	
C	 0.0424542504	 1.5028900397	 0.0563329561	-0.382535
C	-0.045359126	-0.0149518351	-0.1182008281	-0.177411
C	-1.4490490848	-0.5516184518	 0.1336921428	-0.038504
O	-1.4325354859	-1.9511026549	-0.0498285673	-0.258747
C	-2.7027040221	-2.5900997337	-0.0106548936	 0.161792
C	-2.5149076479	-3.9605335627	-0.6531950346	-0.3862
C	-3.2499027636	-2.6968972471	 1.4167658622	-0.391855
H	 1.0587172228	 1.8623423118	-0.1294080116	 0.116109
H	-0.6255579498	 2.0246936843	-0.6381119525	 0.114856
H	-0.2354465942	 1.8056136793	 1.0721008383	 0.115075
H	 0.2590650417	-0.3012645198	-1.1314071251	 0.103929
H	 0.6461966116	-0.517282558	 0.5680200641	 0.105386
H	-1.7727762877	-0.28317793	 1.1528490469	 0.082927
H	-2.1667424448	-0.0837059085	-0.5634500438	 0.078464
H	-3.4130865368	-2.003551068	-0.6192601317	 0.059866
H	-1.8002563509	-4.5548356452	-0.0747808382	 0.121437
H	-3.4636982927	-4.5039121592	-0.693707067	 0.109405
H	-2.1268468666	-3.8552148486	-1.6696709541	 0.118618
H	-2.5557504316	-3.2641448233	 2.045503365	 0.120253
H	-3.3986023623	-1.7131743489	 1.8708760798	 0.114933
H	-4.2164439488	-3.2110131904	 1.4177949324	 0.112202
42.8426	70.3845	130.8854	153.3393	208.8092	227.6984	250.8429	305.5854	325.6613	420.2149	458.4027	515.6302	763.7921	830.4336	899.9774	910.0316	925.174	932.6828	944.9354	1048.9921	1111.8632	1129.9441	1156.2018	1177.9266	1191.1086	1205.4085	1267.2902	1314.3372	1331.4317	1366.0834	1373.9311	1396.037	1411.4332	1412.5045	1441.1555	1480.4475	1485.4088	1492.4472	1494.9201	1499.5131	1507.0893	1510.897	1529.7404	2942.8621	2951.1585	2977.8354	3030.6786	3036.3932	3038.513	3041.9869	3070.4151	3098.3675	3106.4441	3106.7772	3112.9257	3115.5183	3121.6969
CCCOC(C)C	CCCOC(C)C	
InChI=1S/C6H14O/c1-4-5-7-6(2)3/h6H,4-5H2,1-3H3	InChI=1S/C6H14O/c1-4-5-7-6(2)3/h6H,4-5H2,1-3H3
