12
gdb 4378	4.31714	1.88156	1.31043	0.2116	58.75	-0.2583	-0.0205	0.2378	838.1371	0.08701	-414.741166	-414.735196	-414.734251	-414.771222	23.05	
O	 0.0272092008	 1.3439982481	-0.034095217	-0.407307
C	 0.0523145853	 0.0044154357	-0.0568549445	 0.462186
C	 0.0460154613	-0.658813573	-1.278103053	-0.325429
C	 0.0736751335	-2.045647654	-1.1927321354	 0.462187
O	 0.0701758517	-2.7754562874	-2.3165644385	-0.407308
N	 0.1042721316	-2.7105541148	-0.0320779253	-0.358779
C	 0.1068463595	-1.9548949433	 1.0622408468	 0.075395
N	 0.0825454423	-0.6266144157	 1.1225709423	-0.358779
H	 0.036882062	 1.5974513222	 0.9002121663	 0.303961
H	 0.0214553527	-0.1354277409	-2.2231932853	 0.125441
H	 0.0920955956	-3.7017506538	-2.0359210751	 0.303961
H	 0.1315844336	-2.4815808431	 2.0132826588	 0.12447
193.2828	237.2912	354.6003	474.9302	475.0007	564.2668	565.9065	573.0633	574.9073	726.8387	799.3817	845.642	870.635	996.0791	1001.1338	1003.0342	1160.8328	1188.0161	1257.9738	1346.0127	1363.0768	1380.3294	1501.2834	1509.93	1642.7405	1664.6072	3165.8346	3236.668	3759.1952	3760.2788
OC1=CC(O)=NC=N1	Oc1cc(O)ncn1	
InChI=1S/C4H4N2O2/c7-3-1-4(8)6-2-5-3/h1-2H,(H2,5,6,7,8)	InChI=1S/C4H4N2O2/c7-3-1-4(8)6-2-5-3/h1-2H,(H2,5,6,7,8)
