11
gdb 2561	3.72779	2.57228	1.72752	4.7105	56.13	-0.3096	-0.0172	0.2924	693.5702	0.078815	-302.306944	-302.300539	-302.299595	-302.337244	22.667	
N	 0.0471406995	-1.1286563228	 0.0159418646	-0.320283
C	 0.004890783	 0.0262320855	 0.0035728931	 0.245395
C	-0.0168121935	 1.4684666756	 0.0105983564	 0.0445
C	 0.505877446	 2.1859979487	 1.2655143771	-0.275171
C	 1.3327597645	 2.2041836931	 0.0289727202	-0.275183
C	-1.1062453364	 2.0819465024	-0.7085268212	 0.245428
N	-1.9678427075	 2.6008654594	-1.2777668734	-0.320275
H	-0.0314268818	 3.0826499198	 1.5485781949	 0.163902
H	 0.8018725538	 1.5405227007	 2.083148769	 0.163894
H	 2.2101993678	 1.5715460829	-0.0227616159	 0.163901
H	 1.3767728247	 3.1136160447	-0.5573723048	 0.163893
138.6209	211.9902	218.6933	222.4278	481.4553	503.3969	597.2437	607.0422	613.2721	787.5651	845.874	924.8511	982.0174	988.0659	1080.0996	1108.5777	1200.2877	1276.0369	1297.0823	1465.7929	1491.4999	2362.2436	2365.5256	3157.364	3159.349	3248.0992	3261.2978
N#CC1(CC1)C#N	N#CC1(CC1)C#N	
InChI=1S/C5H4N2/c6-3-5(4-7)1-2-5/h1-2H2	InChI=1S/C5H4N2/c6-3-5(4-7)1-2-5/h1-2H2
