12
gdb 4626	6.51696	1.40586	1.1564	2.991	70.29	-0.1984	-0.021	0.1774	949.3088	0.083792	-377.512406	-377.505412	-377.504467	-377.543469	26.192	
N	-0.0135848329	 1.289746418	 0.0074531409	-0.609633
C	 0.0027012189	 0.0252719149	 0.0007786781	 0.455094
N	-1.1035144077	-0.8070178723	 0.0029384734	-0.31235
C	-0.7029412061	-2.1272047041	-0.006510944	-0.197225
C	 0.6452914262	-2.1360095687	-0.014381456	 0.197687
O	 1.098575372	-0.8110577482	-0.0099394131	-0.24624
C	 1.5812449491	-3.1758504426	-0.0252936707	 0.263433
C	 2.3933566501	-4.0661308158	-0.034706261	-0.424885
H	 0.9304835012	 1.6656051617	 0.0038893572	 0.230313
H	-2.0429039103	-0.4527782263	 0.0096917253	 0.282681
H	-1.3958899098	-2.950297171	-0.0068200565	 0.16111
H	 3.1068815693	-4.8525060055	-0.0429941337	 0.200014
129.0826	151.0573	198.0329	372.6204	414.391	464.8844	522.9861	560.2486	560.9865	634.8798	703.152	715.9382	748.4354	763.4605	789.9009	945.3862	958.7513	1044.542	1096.9874	1201.5001	1280.9544	1355.1167	1421.5791	1670.7224	1795.9125	2228.9246	3296.028	3502.3564	3547.6745	3703.9499
N=C1NC=C(O1)C#C	[NH][C@@H]1NC=C(O1)C#C	
InChI=1S/C5H4N2O/c1-2-4-3-7-5(6)8-4/h1,3H,(H2,6,7)	InChI=1S/C5H5N2O/c1-2-4-3-7-5(6)8-4/h1,3,5-7H/t5-/m1/s1
