13
gdb 3275	5.95197	2.60187	2.12262	3.5174	54.85	-0.2383	0.017	0.2553	616.8234	0.10361	-340.591587	-340.585985	-340.585041	-340.620934	21.251	
N	-0.1147230952	 1.2102702394	-0.5164631029	-0.546969
C	-0.0603786072	 0.0425322451	-0.0723990154	 0.481735
O	 1.0017146554	-0.6696060171	 0.4788153707	-0.274199
C	 0.2067763128	-1.8883855106	 0.573255887	 0.098962
C	-0.5237942765	-2.0503371087	 1.9181824964	-0.188238
N	-1.6128613731	-1.1444469667	 1.445348259	-0.315418
C	-1.0353710716	-1.1132133809	 0.0709348868	-0.150888
H	 0.7806595695	 1.6924598648	-0.4182198763	 0.230322
H	 0.7056771592	-2.7312686287	 0.0983898342	 0.101349
H	-0.8422688646	-3.0857470793	 2.0890652476	 0.107083
H	 0.0123615016	-1.6869685965	 2.7999395491	 0.12392
H	-2.5313875813	-1.5687360131	 1.4750813604	 0.230586
H	-1.6827573891	-1.3706342877	-0.7659042266	 0.101754
134.3565	239.2911	367.8963	424.7197	628.8467	653.6561	757.8378	805.9837	824.5008	869.4662	882.238	940.4006	986.8986	999.2615	1015.2966	1031.4973	1081.1107	1143.6004	1182.5313	1199.1721	1249.3174	1258.3672	1330.3269	1344.9334	1387.2787	1494.7313	1832.2874	3028.168	3088.7997	3126.8143	3137.1065	3473.6321	3559.3371
N=C1OC2CNC12	[NH][C]1O[C@H]2CN[C@@H]12	
InChI=1S/C4H6N2O/c5-4-3-2(7-4)1-6-3/h2-3,5-6H,1H2	InChI=1S/C4H6N2O/c5-4-3-2(7-4)1-6-3/h2-3,5-6H,1H2/t2-,3+/m0/s1
