14
gdb 1970	7.37564	1.55802	1.38055	2.1305	54.52	-0.2545	0.0242	0.2787	837.9924	0.113556	-361.728293	-361.721276	-361.720332	-361.759573	25.178	
O	 0.0651788722	 1.4385286206	 0.1415538738	-0.418815
C	 0.0421315775	 0.0586466498	-0.1827548239	-0.071603
C	-1.3555290577	-0.5320741315	-0.0716976086	 0.050621
C	-1.4685707366	-2.0843206149	-0.0583340725	-0.41065
C	-2.111901641	-1.9128915194	 1.3396207134	 0.431577
O	-2.6314244264	-2.6291342528	 2.1490958665	-0.346601
N	-1.8910573455	-0.5483697115	 1.3048960618	-0.342991
H	-0.0579210874	 1.5111160956	 1.0936967092	 0.285389
H	 0.3922562453	-0.0219213103	-1.2177153469	 0.116947
H	 0.7320403137	-0.5169221858	 0.4531775111	 0.092971
H	-2.0295174976	-0.0430670575	-0.7833649883	 0.094133
H	-2.1411100061	-2.5167182544	-0.8003471329	 0.138092
H	-0.5200941897	-2.6261016324	-0.0625708735	 0.132093
H	-2.3593945506	 0.1771724745	 1.8295701808	 0.248837
83.7454	112.2348	226.2368	303.7939	383.5986	438.169	448.1267	532.7276	568.0727	728.566	820.2286	903.1731	936.8928	1002.9287	1029.9012	1064.5221	1092.5982	1136.3301	1172.4924	1194.4864	1227.4358	1272.6989	1352.5638	1379.1871	1401.0614	1421.8338	1458.6734	1492.0286	1900.2921	2990.7557	3051.2621	3077.9908	3084.9554	3145.0567	3596.9334	3813.8238
OCC1CC(=O)N1	OC[C@H]1CC(=O)N1	
InChI=1S/C4H7NO2/c6-2-3-1-4(7)5-3/h3,6H,1-2H2,(H,5,7)	InChI=1S/C4H7NO2/c6-2-3-1-4(7)5-3/h3,6H,1-2H2,(H,5,7)/t3-/m1/s1
