12
gdb 4291	4.02964	2.0229	1.3468	4.7211	60.27	-0.2388	-0.0277	0.2111	825.7241	0.085905	-414.695285	-414.689049	-414.688105	-414.725726	23.592	
O	 0.0107938333	 1.3015810187	 0.007721019	-0.384196
C	-0.0594746511	-0.0282712104	 0.0008449471	 0.495069
N	-1.1726591071	-0.6330991489	 0.0036929243	-0.379794
C	-1.1817981939	-2.0444672226	-0.0039325549	 0.334563
N	-2.2533589413	-2.7388914191	-0.001861551	-0.528427
C	 0.1306955302	-2.6939449309	-0.0147042401	-0.150842
C	 1.2362575647	-1.9532564884	-0.0167677252	 0.039201
O	 1.1903782242	-0.5757071746	-0.0090334168	-0.246347
H	 0.9413320148	 1.5612974964	 0.0039665149	 0.317038
H	-3.05632582	-2.1056977294	 0.0059912312	 0.221353
H	 0.1845819384	-3.7739575934	-0.0208724034	 0.134094
H	 2.2574043877	-2.3076814274	-0.0243197252	 0.148288
128.51	204.0033	369.5145	390.4482	446.2822	522.5013	524.889	579.0592	699.2166	755.6489	773.3502	837.0312	924.7839	925.165	962.0537	962.5549	1027.9593	1142.8702	1234.8143	1268.105	1328.7974	1389.4549	1426.0328	1659.3097	1722.3019	1767.0216	3229.8223	3249.8375	3458.1868	3798.5851
OC1=NC(=N)C=CO1	OC1=NC(=CCO1)[NH]	
InChI=1S/C4H4N2O2/c5-3-1-2-8-4(7)6-3/h1-2H,(H2,5,6,7)	InChI=1S/C4H5N2O2/c5-3-1-2-8-4(7)6-3/h1,5H,2H2,(H,6,7)
