16
gdb 795	6.38612	1.21078	1.09517	0.8991	60.51	-0.2419	0.0103	0.2523	1051.1719	0.134383	-362.871515	-362.862829	-362.861885	-362.905081	29.947	
C	-0.1389159754	 1.5196234976	-0.0257114067	-0.469968
C	-0.010802898	 0.0191847945	-0.0014546255	 0.350926
C	 0.0782400683	-0.7081065027	 1.3134715017	-0.285718
C	 1.4066186229	-0.4536240532	 2.0475461086	-0.05819
O	 1.4337828374	-1.0468498419	 3.3335000798	-0.413929
N	 0.0417635463	-0.7071298686	-1.0532874799	-0.164072
O	-0.0226163112	 0.0705413274	-2.2223779445	-0.399739
H	 0.766893836	 1.9797278512	-0.4359437136	 0.146998
H	-0.9609005983	 1.8168611418	-0.6834432656	 0.150033
H	-0.3131924246	 1.9218655424	 0.9742497362	 0.121044
H	-0.739419646	-0.391018896	 1.9729441284	 0.113211
H	-0.0339626518	-1.7813545533	 1.1272374801	 0.106258
H	 2.2422683668	-0.8003200068	 1.420519119	 0.099457
H	 1.550131615	 0.6190203551	 2.2150572966	 0.114593
H	 1.3840144528	-2.0012624148	 3.2184043505	 0.283501
H	-0.0045766402	-0.6013056129	-2.9117989151	 0.305596
67.4713	81.8332	103.5867	156.4067	289.6976	314.7348	346.3065	372.4232	385.0079	422.1901	549.8313	663.8399	789.5657	831.1225	974.357	999.3518	1002.3848	1051.8629	1069.3741	1093.9767	1163.6993	1263.491	1297.4669	1315.3227	1388.7098	1400.1019	1402.0515	1420.9081	1474.8137	1477.7826	1484.799	1512.5509	1726.1824	2989.9447	3030.1628	3042.112	3068.0674	3092.136	3100.6739	3133.3253	3815.3034	3822.5509
CC(CCO)=NO	CC(=NO)CCO	
InChI=1S/C4H9NO2/c1-4(5-7)2-3-6/h6-7H,2-3H2,1H3	InChI=1S/C4H9NO2/c1-4(5-7)2-3-6/h6-7H,2-3H2,1H3
