14
gdb 2894	4.90037	2.17655	1.96627	4.201	56.8	-0.2766	0.0216	0.2982	692.3015	0.115203	-324.594116	-324.587651	-324.586707	-324.625065	22.831	
N	 0.1867461383	-1.1618034497	 0.2811280392	-0.32331
C	 0.0593480574	-0.0186143488	 0.1697992284	 0.269489
C	-0.1065425545	 1.448320993	 0.0381352739	-0.018417
C	-0.7384187105	 2.0618565889	 1.3014976621	-0.232044
C	 0.5023993748	 2.2758908187	 2.1810144884	-0.240437
C	 1.585262311	 2.6255934874	 1.1480578162	-0.062887
O	 1.1488352491	 2.0856882424	-0.1136105003	-0.253462
H	-0.6960948399	 1.6383920808	-0.8645982602	 0.130821
H	-1.1998786151	 3.0159021162	 1.0302536133	 0.119406
H	-1.4970357939	 1.4221248981	 1.754913435	 0.130995
H	 0.3665992957	 3.0613205305	 2.9269780323	 0.116396
H	 0.754802086	 1.3498105825	 2.7057089869	 0.132732
H	 1.7019413784	 3.7090581899	 1.0251470309	 0.11106
H	 2.5619675733	 2.2003612199	 1.3995773439	 0.119659
60.6154	141.9996	206.0987	289.5973	477.0746	562.9503	630.8825	739.2554	826.5266	866.5472	904.6043	927.9424	937.1317	962.4195	1043.2379	1093.1367	1124.3275	1193.8748	1197.9728	1251.3422	1284.3833	1320.9707	1344.0983	1364.8717	1392.4025	1485.7843	1497.5106	1530.6575	2352.2771	3030.1578	3059.4608	3064.1006	3071.1318	3078.9886	3120.4084	3133.3193
N#CC1CCCO1	N#C[C@H]1CCCO1	
InChI=1S/C5H7NO/c6-4-5-2-1-3-7-5/h5H,1-3H2	InChI=1S/C5H7NO/c6-4-5-2-1-3-7-5/h5H,1-3H2/t5-/m1/s1
