13
gdb 4313	4.15168	1.89039	1.29962	3.4012	64.45	-0.2171	-0.0258	0.1913	860.3171	0.098849	-394.862572	-394.856049	-394.855105	-394.893049	25.186	
N	 0.037467684	 1.3587841844	 0.134097627	-0.560532
C	-0.0254853515	-0.0033306478	 0.0512105248	 0.410373
C	-1.21186193	-0.7030097735	 0.0287943439	-0.331186
C	-1.2198347142	-2.1331837135	-0.0090315195	 0.424916
O	-2.1671551945	-2.8984198755	-0.0311867577	-0.403483
N	 0.1066979295	-2.6664843904	-0.0231142135	-0.337327
C	 1.2152592135	-1.9019053128	-0.0080871698	 0.113507
N	 1.2164783579	-0.6072146296	 0.0277875369	-0.339976
H	 0.9292844775	 1.7717420407	-0.0850781086	 0.263405
H	-0.7809489958	 1.8983570409	-0.0909399425	 0.261592
H	-2.1702549415	-0.1997019326	 0.0452050194	 0.097257
H	 0.1680784442	-3.6748558475	-0.052230018	 0.265238
H	 2.1653941209	-2.4311231628	-0.0295042024	 0.136217
175.6952	186.3338	350.8073	380.1898	436.115	465.7731	486.0265	549.7445	565.8044	668.3251	745.6719	766.0429	792.0874	840.9325	935.6156	972.8617	984.0138	1078.9534	1172.4376	1217.3661	1295.9641	1386.7259	1443.8156	1479.6087	1586.8674	1639.3444	1677.8763	1799.5717	3159.8331	3209.3346	3603.7327	3608.7897	3727.5609
NC1=CC(=O)NC=N1	Nc1cc(=O)[nH]cn1	
InChI=1S/C4H5N3O/c5-3-1-4(8)7-2-6-3/h1-2H,(H3,5,6,7,8)	InChI=1S/C4H5N3O/c5-3-1-4(8)7-2-6-3/h1-2H,(H3,5,6,7,8)
