16
gdb 1765	4.64423	1.91584	1.68088	1.0467	67.99	-0.2358	0.0395	0.2753	808.0286	0.134707	-288.589678	-288.581659	-288.580715	-288.621281	29.478	
C	-0.0651886153	 1.5285532064	-0.0949658159	-0.401853
C	 0.003966425	 0.0290129535	 0.0622981919	-0.022272
N	 1.3027312697	-0.6218432646	-0.1477317358	-0.366926
C	 0.6876358129	-0.6704635444	 1.2058226557	 0.141012
C	 1.4314238879	 0.0754240095	 2.2988120166	-0.456299
C	 0.1071098821	-1.9247898068	 1.6211315673	 0.283486
C	-0.3550578089	-2.9774666394	 1.9770003996	-0.461495
H	 0.8502219426	 2.0134017133	 0.2488077416	 0.129594
H	-0.2001894367	 1.7876099224	-1.150695466	 0.124411
H	-0.9126623594	 1.9400609745	 0.4633826348	 0.121062
H	-0.8699302693	-0.4978038772	-0.3177270757	 0.091687
H	 1.1832015983	-1.5195018693	-0.610145668	 0.236879
H	 1.895094875	 0.9804389395	 1.9042237215	 0.129129
H	 0.7525187528	 0.3472663557	 3.1129172635	 0.124702
H	 2.2218658054	-0.5574129978	 2.7130583314	 0.130903
H	-0.7699945622	-3.9037824753	 2.2887279277	 0.195977
143.8332	155.756	163.414	170.1665	266.0488	324.3915	393.1814	465.5065	533.3387	565.5631	596.1859	650.4165	665.403	763.396	862.1235	954.1779	973.4414	1032.4272	1088.0637	1091.576	1104.3776	1136.9298	1244.1253	1287.7301	1332.5716	1401.3628	1417.1276	1448.0379	1477.6904	1486.8657	1494.4608	1506.9823	2229.1467	3038.4283	3047.4061	3098.0187	3111.5736	3115.3945	3136.1452	3146.309	3503.0418	3507.3285
CC1NC1(C)C#C	C[C@H]1N[C@]1(C)C#C	
InChI=1S/C6H9N/c1-4-6(3)5(2)7-6/h1,5,7H,2-3H3	InChI=1S/C6H9N/c1-4-6(3)5(2)7-6/h1,5,7H,2-3H3/t5-,6-/m1/s1
