15
gdb 4126	3.83782	1.64542	1.3016	1.1501	65.87	-0.2311	0.0128	0.2439	926.3244	0.117434	-399.717868	-399.710232	-399.709288	-399.749552	28.873	
O	-0.182564934	 1.373600138	-0.0560703577	-0.394912
N	 0.0119463749	-0.0192455127	 0.0482112724	-0.272768
C	-1.0890740719	-0.637274516	-0.0403096587	 0.37286
C	-2.5692694173	-0.2617629143	-0.0770989404	-0.324232
C	-2.8836617408	-1.7590357898	 0.115063026	-0.106769
C	-2.2969888795	-2.5435496008	-1.0251668635	-0.338456
C	-1.3824201951	-2.0945586653	 0.102904386	 0.31032
O	-0.7059677723	-2.9841414615	 0.9058251824	-0.445926
H	 0.7116082297	 1.7105901404	 0.0636308422	 0.305821
H	-2.8343892652	 0.3670522966	 0.7774013791	 0.134171
H	-2.9445016564	 0.2032790505	-0.993429734	 0.118677
H	-3.6465475729	-2.1617701738	 0.7673176806	 0.1083
H	-2.4971118323	-3.6101640708	-0.997051662	 0.122475
H	-2.2289989745	-2.1145824646	-2.0218965179	 0.114731
H	 0.0571653975	-3.3142491359	 0.4184297655	 0.295708
117.0022	165.5881	224.3055	244.6003	319.2382	358.5578	422.0964	442.3031	538.6261	549.6749	637.2067	754.0205	812.5421	840.7657	890.5377	939.1199	973.1179	1001.4848	1020.2263	1045.4742	1077.8549	1107.5207	1149.2468	1213.435	1232.4224	1289.1722	1307.1378	1389.7909	1426.2825	1465.8194	1499.4372	1786.4245	3056.6189	3107.617	3108.8571	3203.3257	3214.0899	3797.351	3818.5303
ON=C1CC2CC12O	ON=C1C[C@H]2C[C@@]12O	
InChI=1S/C5H7NO2/c7-5-2-3(5)1-4(5)6-8/h3,7-8H,1-2H2	InChI=1S/C5H7NO2/c7-5-2-3(5)1-4(5)6-8/h3,7-8H,1-2H2/t3-,5-/m0/s1
