15
gdb 2547	3.49905	1.91123	1.32496	3.2296	53.69	-0.2506	-0.0217	0.2288	875.2364	0.122471	-382.781806	-382.773292	-382.772347	-382.815241	28.588	
O	 0.0766947852	 1.3906662797	 0.2095155382	-0.409682
C	 0.0296393552	-0.003128857	-0.0280935603	-0.074893
C	-1.4010671654	-0.5670540481	-0.0082589644	-0.148753
C	-1.3940227024	-2.0983544378	-0.1525367286	-0.074951
O	-2.6823407249	-2.669944703	-0.0316912063	-0.409605
C	-2.0944744284	-0.1728422105	 1.2844476116	 0.193767
O	-3.0892253718	 0.498230235	 1.3506401295	-0.250244
H	-0.4657301676	 1.8306864967	-0.4534025939	 0.28972
H	 0.5171809014	-0.2752196319	-0.9771520363	 0.099615
H	 0.6181596858	-0.457336373	 0.7776648924	 0.120349
H	-1.9796119975	-0.125105068	-0.8320455186	 0.079523
H	-0.909030369	-2.3741821668	-1.1018298183	 0.099617
H	-0.7994715963	-2.5437063669	 0.6537381007	 0.120355
H	-3.2543679771	-2.2743047511	-0.6976862533	 0.289731
H	-1.595397647	-0.5656735774	 2.2013159877	 0.07545
65.8744	88.7034	120.1113	169.0409	246.0181	277.1605	307.7031	358.879	401.9612	525.2271	533.0123	847.5458	903.7043	955.6961	1039.5241	1044.6197	1090.13	1112.9253	1138.6515	1171.0506	1223.4174	1309.6977	1331.7432	1386.0121	1390.0729	1409.6475	1416.3964	1439.1913	1502.883	1512.3625	1841.6584	2859.6891	2979.5592	2988.346	3014.5063	3059.475	3069.786	3813.0574	3813.6469
OCC(CO)C=O	OCC(CO)C=O	
InChI=1S/C4H8O3/c5-1-4(2-6)3-7/h1,4,6-7H,2-3H2	InChI=1S/C4H8O3/c5-1-4(2-6)3-7/h1,4,6-7H,2-3H2
