16
gdb 3528	7.16856	2.31425	2.23905	1.7171	64.7	-0.2285	0.0805	0.3091	657.4435	0.137874	-288.540318	-288.534565	-288.533621	-288.569461	22.896	
C	-0.1687052342	 1.6106339448	-0.0108823252	-0.427548
C	-0.0205299321	 0.0988587981	 0.0147043354	 0.015125
C	 1.1966046413	-0.5644556621	-0.6478510884	-0.010726
C	 2.1731373165	-0.245563422	 0.5272714026	-0.070718
C	 2.5338287543	-1.7234741174	 0.6028652214	-0.1845
N	 1.0519266922	-1.8216335485	 0.2545877941	-0.163692
C	 0.7767499894	-0.5753928801	 1.1417071591	-0.010742
H	 0.777006211	 2.1144453494	 0.2146421618	 0.116203
H	-0.5041106854	 1.9547081565	-0.9950829649	 0.119969
H	-0.9085954328	 1.9441900124	 0.7245285345	 0.119968
H	-0.9629737115	-0.4137523602	-0.2095331025	 0.080774
H	 1.4467736366	-0.676480734	-1.705584366	 0.077141
H	 2.7917293632	 0.6453213891	 0.6778464725	 0.065152
H	 3.1913878508	-2.1371681974	-0.1693380424	 0.098225
H	 2.7804757445	-2.1478719055	 1.5820877691	 0.098225
H	 0.5307180263	-0.700357823	 2.1989602489	 0.077144
220.9251	223.9414	267.293	446.4106	529.2311	712.9056	738.2552	807.4437	845.4732	854.0916	867.415	891.6552	927.6987	1022.1112	1023.9806	1028.4756	1045.8657	1102.8066	1107.17	1120.6951	1142.8871	1172.336	1178.1529	1198.3583	1246.2969	1259.4814	1276.0729	1316.0129	1392.4741	1416.7198	1496.5316	1501.2611	1519.7049	3029.983	3031.6871	3046.1537	3047.8381	3083.669	3089.9056	3091.5584	3096.1986	3102.6034
CC1C2C3CN2C13	C[C@H]1[C@H]2[C@@H]3CN2[C@H]13	
InChI=1S/C6H9N/c1-3-5-4-2-7(5)6(3)4/h3-6H,2H2,1H3	InChI=1S/C6H9N/c1-3-5-4-2-7(5)6(3)4/h3-6H,2H2,1H3/t3-,4-,5-,6+
