15
gdb 1602	4.25383	1.97631	1.5017	2.7723	63.92	-0.2606	-0.056	0.2046	831.5516	0.121904	-308.505543	-308.497255	-308.496311	-308.538162	29.051	
C	-0.1586447584	 1.4216251296	 0.1654699947	-0.395106
C	 0.0568122345	-0.0910017634	-0.0479075234	-0.074878
C	 0.8134839573	-0.3913298403	-1.3424817799	-0.39217
C	 0.7738584362	-0.6880839954	 1.1596701523	 0.231643
O	 1.8885813852	-1.1608731996	 1.110440381	-0.292589
C	 0.0285937356	-0.6591862274	 2.4124410379	 0.264907
C	-0.5970525604	-0.6487412079	 3.4410938405	-0.406313
H	 0.801553077	 1.9463568705	 0.2087196588	 0.129042
H	-0.7339866883	 1.8379406617	-0.6663427988	 0.123978
H	-0.702060388	 1.6240428736	 1.0921391002	 0.131028
H	-0.9353226413	-0.563599666	-0.0782835606	 0.09997
H	 1.8093228912	 0.0597605368	-1.323270194	 0.132116
H	 0.9443993743	-1.4666900199	-1.4871598169	 0.126382
H	 0.2673764868	 0.0112543156	-2.2007365706	 0.108697
H	-1.1351361417	-0.6463886181	 4.3579651088	 0.213292
48.7619	142.5049	187.93	201.7744	241.9859	283.3515	313.262	362.0416	497.2537	583.1327	644.6712	701.2305	719.2805	758.2607	887.5795	934.6146	969.3397	1070.44	1104.1907	1144.3846	1202.8603	1310.1883	1360.6525	1399.0279	1419.2954	1484.2158	1486.4147	1500.4319	1509.2169	1767.1161	2208.0039	3010.9609	3039.3508	3046.8414	3110.1489	3118.5151	3121.9035	3124.5319	3493.8572
CC(C)C(=O)C#C	CC(C)C(=O)C#C	
InChI=1S/C6H8O/c1-4-6(7)5(2)3/h1,5H,2-3H3	InChI=1S/C6H8O/c1-4-6(7)5(2)3/h1,5H,2-3H3
