14
gdb 1955	7.11335	1.56205	1.51535	3.4877	57.94	-0.2768	0.0312	0.308	807.4133	0.113854	-324.577613	-324.570767	-324.569823	-324.608547	24.798	
O	 0.4391671175	 0.9548905035	-0.5771360971	-0.425413
C	-0.0640666449	-0.1529116902	 0.1228429939	 0.154996
C	 0.0290566343	-0.161481043	 1.675610192	-0.265322
C	-1.4607587104	-0.6440586538	 1.7193774203	-0.169295
C	-1.601162833	-0.1638150598	 0.2347588412	-0.241377
C	-1.6065477758	-2.0814403383	 1.8901457665	 0.272622
N	-1.714453288	-3.2257351365	 2.0200139792	-0.327492
H	 1.384496694	 0.8345094059	-0.7107159223	 0.288592
H	 0.3068641053	-1.0985741916	-0.2945665225	 0.089599
H	 0.7769163847	-0.7952785544	 2.1542380236	 0.120547
H	 0.1062266888	 0.8599183719	 2.0555476077	 0.12104
H	-2.1016980628	-0.1374195336	 2.4433594849	 0.127509
H	-1.9849769329	 0.858433829	 0.2043561806	 0.127337
H	-2.1683150367	-0.7925768191	-0.451728738	 0.126656
77.9501	179.4119	233.525	264.9272	367.1846	432.7302	498.8478	566.57	679.203	792.6431	822.7044	902.0922	923.0981	973.5052	996.6554	1077.5192	1102.5166	1147.6656	1170.5813	1189.3464	1248.2814	1266.3816	1271.7024	1322.3602	1344.6322	1435.2796	1467.871	1495.5683	2351.0794	3014.254	3074.167	3081.286	3094.3054	3140.6425	3147.3242	3822.2972
OC1CC(C1)C#N	O[C@H]1C[C@@H](C1)C#N	
InChI=1S/C5H7NO/c6-3-4-1-5(7)2-4/h4-5,7H,1-2H2	InChI=1S/C5H7NO/c6-3-4-1-5(7)2-4/h4-5,7H,1-2H2/t4-,5-
