17
gdb 3977	4.56613	1.18009	1.17458	1.7196	68.69	-0.2416	0.0078	0.2494	1079.8549	0.139434	-400.948972	-400.940452	-400.939507	-400.981779	32.203	
C	-0.2886087213	 1.5389936748	-0.0960313778	-0.447218
C	 0.0082928786	 0.0475571035	-0.0060883491	 0.410009
O	-1.1648024562	-0.7290612837	-0.1366659787	-0.473221
C	 1.2297244077	-0.4098495087	-0.892756082	-0.3694
C	 2.0220123463	-0.5259456286	 0.3889875241	 0.426367
C	 0.8016108535	-0.3707494212	 1.2696506812	-0.353166
N	 3.2724725914	-0.6053958449	 0.5691395819	-0.237483
O	 3.5801625598	-0.6278024225	 1.9446213467	-0.39519
H	 0.6179730391	 2.1334231341	 0.054312149	 0.127311
H	-0.6918902387	 1.7960322797	-1.0836690046	 0.108275
H	-1.0232512335	 1.8263686333	 0.662343234	 0.127764
H	-1.6329487122	-0.4383822245	-0.9270626118	 0.276561
H	 1.0297774613	-1.3818082864	-1.3551039709	 0.122579
H	 1.6006493393	 0.2852175301	-1.650743785	 0.112697
H	 0.8706230949	 0.3524754956	 2.0857432551	 0.1233
H	 0.4389416677	-1.3240429572	 1.6661075952	 0.135535
H	 4.542194332	-0.6717738335	 1.9346873229	 0.30528
52.4206	188.0164	235.4745	276.7961	284.7898	311.7638	343.615	360.5841	419.7967	433.778	473.4927	537.7599	652.3854	758.1911	813.7172	873.9958	890.2345	944.6498	962.4281	981.2278	1035.2055	1106.2091	1117.7934	1154.2225	1196.9538	1212.4631	1257.4328	1282.9676	1375.865	1402.678	1407.2002	1442.1297	1462.8672	1492.0892	1494.6324	1789.033	3022.7798	3048.906	3061.0074	3090.6682	3106.2594	3114.0488	3115.8369	3801.3649	3818.8224
CC1(O)CC(C1)=NO	C[C@@]1(O)CC(=NO)C1	
InChI=1S/C5H9NO2/c1-5(7)2-4(3-5)6-8/h7-8H,2-3H2,1H3	InChI=1S/C5H9NO2/c1-5(7)2-4(3-5)6-8/h7-8H,2-3H2,1H3/t5-
