14
gdb 4997	3.34599	2.35422	1.39369	0.7341	68.1	-0.2336	-0.0518	0.1818	839.0748	0.108742	-378.762867	-378.756066	-378.755122	-378.793801	25.36	
C	-0.0304748764	 1.5213808684	 0.0070866015	-0.47515
C	-0.0079836375	 0.024352618	-0.0194285356	 0.21253
C	-0.0359428565	-0.7131953157	-1.1510147048	-0.08986
N	-0.0150981223	-2.1040105292	-1.1787776374	-0.278133
C	 0.033544054	-2.6781825169	-0.0426010774	 0.134379
O	 0.0661986402	-2.0776315797	 1.1630198954	-0.21519
C	 0.0475947213	-0.6770184795	 1.2564465041	 0.336366
N	 0.0781285734	-0.1080065563	 2.387909333	-0.531638
H	 0.8577039451	 1.9121998368	 0.5140885134	 0.148475
H	-0.0729629292	 1.9293900286	-1.0057740318	 0.119924
H	-0.8920357985	 1.8847970104	 0.5765307156	 0.148504
H	-0.0774721707	-0.2356180903	-2.1251462527	 0.117478
H	 0.0540140401	-3.7589772042	 0.0585084958	 0.145408
H	 0.1152090869	-0.7915100006	 3.1440930608	 0.226909
124.9114	174.5864	243.3579	292.1672	373.0796	465.7111	515.3185	571.0153	589.8554	734.9906	758.3969	858.8327	892.3069	930.7138	965.7553	983.2811	1028.1614	1071.8355	1082.7813	1177.0173	1228.4068	1296.2023	1405.4323	1410.1174	1420.4752	1467.6758	1484.6358	1629.1765	1676.79	1742.6895	3040.8451	3098.0577	3126.2403	3180.4364	3195.4603	3495.5836
CC1=CN=COC1=N	CC1=C(OC=NC1)[NH]	
InChI=1S/C5H6N2O/c1-4-2-7-3-8-5(4)6/h2-3,6H,1H3	InChI=1S/C5H7N2O/c1-4-2-7-3-8-5(4)6/h3,6H,2H2,1H3
