21
gdb 3991	5.29897	0.74675	0.71261	0.7178	79.32	-0.2378	0.0182	0.256	1654.9943	0.18597	-366.239746	-366.229382	-366.228438	-366.276079	36.184	
C	-0.0678317143	 1.5520148044	-0.0382041672	-0.381953
C	 0.0070451522	 0.0234580094	 0.0028841577	-0.159372
C	 0.7269184158	-0.509410438	 1.2462018577	-0.162403
C	 0.7908805108	-2.0474194995	 1.2870130152	-0.275764
C	 1.5213632656	-2.5803152844	 2.4914986642	 0.359225
C	 2.9989236709	-2.3323255985	 2.6468108983	-0.468729
N	 0.816260898	-3.2262814301	 3.3407467715	-0.167823
O	 1.5882752415	-3.6573322475	 4.4363967898	-0.402757
H	 0.93305977	 1.9980302774	-0.0348772379	 0.113223
H	-0.5849978177	 1.9025052939	-0.9368625931	 0.11218
H	-0.6065848464	 1.9455735154	 0.8308527713	 0.115509
H	-1.0069606871	-0.3957441286	-0.0343512252	 0.098175
H	 0.5190455358	-0.3436173004	-0.8967672158	 0.094085
H	 1.7422011707	-0.0925699768	 1.282654788	 0.095391
H	 0.2164378272	-0.1518195007	 2.1497903509	 0.104337
H	-0.2222149511	-2.4606362994	 1.2872036418	 0.113631
H	 1.2924064309	-2.4077291505	 0.3773244491	 0.100055
H	 3.1892249657	-1.6095906503	 3.4482197349	 0.144724
H	 3.5086069921	-3.2560107168	 2.9341628047	 0.147892
H	 3.4371899988	-1.9471240411	 1.7236945537	 0.116493
H	 0.9405486307	-4.1431715078	 4.9571016306	 0.303881
48.6451	62.7881	79.0706	106.9205	140.6797	247.1173	255.4707	289.5174	340.2668	366.1122	391.0749	447.2791	553.5948	649.8143	737.2812	795.2019	820.4709	903.0752	930.2694	970.4808	1014.2894	1022.9993	1037.4856	1062.3024	1122.2604	1131.5373	1236.2637	1269.505	1281.2056	1313.5154	1331.3707	1356.314	1392.6793	1399.2371	1400.7071	1413.3309	1472.7338	1476.2189	1483.426	1487.1591	1498.5171	1499.9792	1512.4469	1728.0975	3006.2252	3011.1231	3020.2994	3029.8429	3036.7105	3041.8738	3058.9376	3090.1513	3096.8501	3101.5853	3101.8907	3132.9383	3824.0731
CCCCC(C)=NO	CCCCC(=NO)C	
InChI=1S/C6H13NO/c1-3-4-5-6(2)7-8/h8H,3-5H2,1-2H3	InChI=1S/C6H13NO/c1-3-4-5-6(2)7-8/h8H,3-5H2,1-2H3
