15
gdb 2378	4.39168	2.35613	1.76133	3.2097	58.11	-0.2434	0.0445	0.2879	733.8474	0.125231	-341.851538	-341.844167	-341.843223	-341.882845	26.881	
C	 0.2684582686	 1.3533417173	 0.2794294724	-0.399858
C	 0.0153818678	-0.0898540658	-0.0882795195	 0.027696
C	 0.8133474416	-0.7583562863	-1.1698113681	-0.262258
N	 0.9724233773	-1.1333340011	 0.2286176735	-0.115661
C	 2.1291391034	-0.911753798	 0.9870764704	 0.407105
N	 3.2606088564	-1.4712902694	 0.4267618812	-0.535063
O	 2.1315689401	-0.3185928136	 2.0454719205	-0.377894
H	 1.2964222033	 1.6498423849	 0.0552948001	 0.127074
H	-0.4102163081	 2.0017931862	-0.2844115145	 0.11501
H	 0.1044141637	 1.5157519693	 1.3472582272	 0.150158
H	-1.0170499486	-0.4142216813	 0.0340427849	 0.098352
H	 0.3603046523	-1.5066428298	-1.8156562109	 0.118518
H	 1.6097703522	-0.1757259237	-1.628291532	 0.12788
H	 3.1387588772	-2.2158583536	-0.2413982517	 0.257266
H	 4.0285879527	-1.5822835552	 1.0703754464	 0.261675
81.1215	166.1149	188.5066	237.89	374.6912	399.0956	450.7783	478.2303	534.7155	621.6779	719.5996	785.6715	826.3096	913.3984	950.9938	1042.3157	1056.4806	1108.4221	1123.1283	1146.7161	1163.0117	1195.6028	1285.7868	1392.5594	1411.2601	1432.6187	1484.1207	1490.5292	1513.5399	1616.5073	1801.9063	3044.4603	3096.8049	3108.1728	3120.5914	3133.1188	3184.4317	3583.9761	3705.3015
CC1CN1C(N)=O	C[C@H]1CN1C(=O)N	
InChI=1S/C4H8N2O/c1-3-2-6(3)4(5)7/h3H,2H2,1H3,(H2,5,7)	InChI=1S/C4H8N2O/c1-3-2-6(3)4(5)7/h3H,2H2,1H3,(H2,5,7)/t3-,6?/m0/s1
