13
gdb 1223	7.36362	1.47822	1.29161	5.8203	52.25	-0.2678	-0.0366	0.2312	886.6728	0.098738	-381.62704	-381.619308	-381.618363	-381.659649	25.539	
C	 0.0655984565	 1.255284715	 0.2166765321	-0.482709
C	 0.1195521986	-0.2202994715	-0.114429597	 0.3744
O	 0.151238029	-1.091167914	 0.7189229064	-0.270142
C	 0.106113859	-0.5674074456	-1.6083339044	-0.197732
O	 0.53315055	-1.8897319797	-1.8621703792	-0.164199
C	-0.3104496257	-2.8886257316	-1.5033189929	 0.190657
O	-0.01074412	-4.0371483987	-1.6054662946	-0.270786
H	 1.030740191	 1.7174708584	-0.0227121725	 0.156143
H	-0.6926969526	 1.7690417324	-0.3843205988	 0.141614
H	-0.1424241033	 1.3902431103	 1.2783310943	 0.157657
H	-0.9112291575	-0.3863587836	-1.9894791563	 0.135989
H	 0.7788052634	 0.0911941411	-2.1642185717	 0.147206
H	-1.2908334783	-2.5200805726	-1.1508246853	 0.081901
65.9989	92.4704	121.427	186.0408	276.1637	315.8083	388.9902	462.2109	571.7916	703.5474	802.2199	859.9923	971.1127	1029.363	1053.6734	1102.8745	1152.582	1209.4501	1294.5816	1379.5983	1388.2816	1429.984	1460.7263	1471.3016	1476.3935	1830.2916	1878.2431	2973.2051	2998.5661	3037.0995	3096.5623	3102.6924	3157.6902
CC(=O)COC=O	CC(=O)COC=O	
InChI=1S/C4H6O3/c1-4(6)2-7-3-5/h3H,2H2,1H3	InChI=1S/C4H6O3/c1-4(6)2-7-3-5/h3H,2H2,1H3
