11
gdb 3911	8.2413	2.1017	1.67463	1.9498	55.67	-0.2674	-0.0671	0.2003	673.0235	0.080965	-339.469166	-339.463642	-339.462697	-339.498604	19.679	
O	 0.0544659326	-0.0493632537	-0.0007430815	-0.291724
C	 0.0079513383	 1.1630880514	 0.0088334878	 0.08191
C	 1.1948292816	 2.0074177665	 0.0028665999	 0.291318
C	 1.3781955414	 3.3847172883	 0.0114302932	-0.292685
C	 2.7719900589	 3.5557073523	-0.0016868003	 0.004361
N	 3.4134662796	 2.3808059264	-0.0174842125	-0.200553
N	 2.4439259916	 1.468014285	-0.0144040792	-0.224862
H	-0.9553032622	 1.7125136517	 0.0232897457	 0.090166
H	 0.6093535479	 4.1402849125	 0.0252196838	 0.12325
H	 3.3406077954	 4.4732846103	-0.0005379416	 0.126761
H	 2.6576054548	 0.4828256392	-0.0242383653	 0.292058
152.5297	192.823	287.4252	506.4743	606.195	659.593	713.8198	768.6696	820.5519	902.5723	937.5755	1031.1156	1042.2728	1063.5535	1146.4683	1256.942	1310.0767	1329.7229	1408.6754	1456.1713	1472.811	1585.3344	1776.8539	2927.6316	3253.583	3274.3712	3655.5513
O=CC1=CC=NN1	O=Cc1ccn[nH]1	
InChI=1S/C4H4N2O/c7-3-4-1-2-5-6-4/h1-3H,(H,5,6)	InChI=1S/C4H4N2O/c7-3-4-1-2-5-6-4/h1-3H,(H,5,6)
