16
gdb 4352	3.73477	1.91344	1.28526	1.7927	73.74	-0.2403	-0.0311	0.2092	945.1175	0.131181	-342.859275	-342.851466	-342.850521	-342.892758	27.465	
C	-0.0735827337	 1.4992586175	-0.0087752207	-0.470088
C	-0.0265352082	-0.0033095329	 0.028117138	 0.323651
N	 0.0192964174	-0.6336888411	-1.1548817805	-0.324469
C	 0.0615255229	-1.9687425905	-1.1437945597	 0.344156
C	 0.1128317353	-2.674048913	-2.4711618019	-0.458423
N	 0.0623632253	-2.7450510547	-0.0484587483	-0.287055
C	 0.0166582784	-2.108099152	 1.119382681	 0.012452
C	-0.029609236	-0.722984512	 1.220443143	-0.180714
H	 0.8045224516	 1.8902091455	-0.532400241	 0.146256
H	-0.9519878248	 1.8342971218	-0.5693700369	 0.146256
H	-0.1084399622	 1.9297164761	 0.9945901795	 0.121028
H	 1.0128119508	-3.2938777931	-2.5349528507	 0.139401
H	-0.743247372	-3.3484662254	-2.573797982	 0.139404
H	 0.1083411659	-1.9510351957	-3.2868754428	 0.133496
H	 0.0170610847	-2.7314428557	 2.011766739	 0.113268
H	-0.0663378253	-0.2273459347	 2.1833672142	 0.101381
33.5546	53.125	180.4623	203.6743	284.0022	421.2211	440.7928	544.6386	581.223	587.275	755.2853	783.4643	852.1339	928.2952	994.8676	1005.1311	1008.9482	1050.7396	1059.4464	1068.9931	1132.6618	1243.8732	1275.7286	1319.477	1393.4262	1404.6383	1426.3151	1469.1115	1473.9941	1479.3082	1481.6299	1490.2663	1606.6159	1617.1417	3043.5313	3047.1165	3103.9173	3105.4096	3130.2004	3144.8207	3155.6948	3199.7771	33.5523	53.1174	180.4624	203.674	284.0021	421.221	440.7927	544.6386	581.2229	587.275	755.2853	783.4641	852.1336	928.2952	994.8677	1005.1306	1008.9481	1050.7397	1059.4466	1068.9932	1132.6613	1243.8729	1275.7285	1319.4769	1393.4263	1404.6386	1426.3151	1469.1113	1473.9946	1479.3085	1481.6303	1490.2664	1606.6157	1617.1415	3043.5313	3047.1165	3103.9173	3105.4095	3130.2004	3144.8207	3155.6947	3199.777
CC1=NC(C)=NC=C1	Cc1nc(C)ncc1	
InChI=1S/C6H8N2/c1-5-3-4-7-6(2)8-5/h3-4H,1-2H3	InChI=1S/C6H8N2/c1-5-3-4-7-6(2)8-5/h3-4H,1-2H3
