12
gdb 401	5.87456	3.17277	2.45596	4.9191	50.81	-0.2743	0.0226	0.2969	541.8201	0.096715	-265.399968	-265.393944	-265.393	-265.429201	21.524	
C	-0.0438317742	 1.507929851	 0.0139652932	-0.461269
C	 0.0040377252	-0.0080269606	-0.0327633185	 0.155157
C	 0.745127005	-0.6973603699	-1.1329604062	-0.255329
N	 1.2726702747	-0.7183387669	 0.234059921	-0.31807
C	-1.1668679491	-0.6610330647	 0.5223880887	 0.281065
N	-2.1238242694	-1.1491795488	 0.9488984265	-0.334788
H	 0.8474966646	 1.9261580992	-0.4635694658	 0.123091
H	-0.9249889338	 1.8884603199	-0.5107622886	 0.149123
H	-0.085723141	 1.8641959055	 1.0476039213	 0.147558
H	 0.3943656054	-1.6558503926	-1.5016088195	 0.14548
H	 1.2132638827	-0.0581939514	-1.8771717822	 0.126216
H	 2.0161108299	-0.0319153909	 0.3426220004	 0.241767
185.6459	202.6062	244.9536	352.0316	361.6521	567.5015	587.8572	659.2255	829.0597	888.2207	939.1059	980.8355	1010.9583	1059.8983	1128.3302	1151.6235	1258.2526	1318.3149	1358.7635	1419.2795	1481.027	1500.7514	1510.346	2359.8093	3040.1831	3114.972	3116.3516	3117.3163	3209.5793	3498.3622
CC1(CN1)C#N	C[C@]1(CN1)C#N	
InChI=1S/C4H6N2/c1-4(2-5)3-6-4/h6H,3H2,1H3	InChI=1S/C4H6N2/c1-4(2-5)3-6-4/h6H,3H2,1H3/t4-/m1/s1
