15
gdb 3462	5.60994	2.52705	2.48854	1.7912	60.4	-0.2343	0.0024	0.2367	621.8447	0.125884	-308.468255	-308.462522	-308.461578	-308.497335	23.04	
C	-0.1055041771	 1.5347293408	-0.003266453	-0.423523
C	-0.0146117315	 0.018212862	 0.0115672485	 0.040447
C	 1.2451064899	-0.6173472862	-0.6807049026	 0.010634
O	 2.0175361172	-0.2405385063	 0.507450831	-0.286392
C	 0.7847089845	-0.6265535246	 1.2013029226	 0.010608
C	 0.6891372629	-2.12246853	 0.8606781272	-0.080243
C	 1.0063145128	-2.116103633	-0.4365298811	-0.080277
H	 0.8618936066	 1.9819604082	 0.2356365903	 0.136643
H	-0.4234121938	 1.895287608	-0.987840173	 0.114536
H	-0.8429224679	 1.8869067286	 0.7265527599	 0.114534
H	-0.9718986751	-0.4545203148	-0.2249335526	 0.070734
H	 1.6622226138	-0.2673881968	-1.6247865547	 0.076862
H	 0.7181117678	-0.2862629041	 2.2345085555	 0.076857
H	 0.416962998	-2.9298519278	 1.5239877118	 0.109291
H	 1.0727497719	-2.9166927439	-1.1580353898	 0.10929
228.0412	268.2612	276.9942	486.1034	527.7595	626.1261	696.4216	747.3513	794.5644	829.3714	868.657	871.9489	907.6926	911.6169	939.6158	993.9015	1051.7207	1074.1222	1099.1212	1152.3284	1158.9872	1214.7836	1236.1587	1240.9708	1299.0291	1303.0727	1371.4947	1401.7482	1490.7233	1503.7539	1612.6872	3033.01	3070.9955	3090.4385	3125.0133	3128.6737	3131.1341	3232.4608	3259.7107
CC1C2OC1C=C2	C[C@H]1[C@H]2O[C@@H]1C=C2	
InChI=1S/C6H8O/c1-4-5-2-3-6(4)7-5/h2-6H,1H3	InChI=1S/C6H8O/c1-4-5-2-3-6(4)7-5/h2-6H,1H3/t4-,5-,6+
