14
gdb 4306	3.80393	1.96754	1.30728	5.6691	67.26	-0.2348	-0.0495	0.1853	886.5891	0.108944	-378.798097	-378.791181	-378.790237	-378.82949	25.489	
C	-0.023992452	 1.4979254784	 0.0056195322	-0.475233
C	 0.0030979563	-0.0077712464	 0.0039897101	 0.331526
N	-0.0302507117	-0.6088567958	-1.1582653077	-0.367672
C	-0.0079880944	-1.9921670735	-1.2344457163	 0.434081
O	-0.0356740056	-2.6354742974	-2.260218655	-0.382605
N	 0.0515077439	-2.6774303642	 0.0077374836	-0.333292
C	 0.0858899937	-2.0571735165	 1.2075043333	 0.052475
C	 0.0632244987	-0.6998571457	 1.2564773608	-0.205726
H	 0.8699800023	 1.8971060375	 0.4982415632	 0.137553
H	-0.0713474597	 1.8700338735	-1.0175312422	 0.152732
H	-0.8895973127	 1.8655521267	 0.5684215287	 0.13746
H	 0.0668889243	-3.6846885416	-0.0649026976	 0.27004
H	 0.1306751275	-2.6930055958	 2.0848876039	 0.14187
H	 0.0894072993	-0.1700718994	 2.1981721029	 0.10679
93.4052	129.1378	206.8158	317.4386	410.7537	516.4438	532.3248	574.3115	613.3894	709.9326	747.0104	784.5609	810.3541	902.1549	967.5271	976.5948	1041.0948	1054.8217	1125.8295	1148.6782	1219.8642	1281.7612	1394.7273	1422.0961	1466.5392	1480.5019	1501.7855	1567.7917	1681.2827	1813.4785	3035.7665	3090.5658	3158.8075	3195.4585	3232.7677	3615.1334
CC1=NC(=O)NC=C1	Cc1nc(=O)[nH]cc1	
InChI=1S/C5H6N2O/c1-4-2-3-6-5(8)7-4/h2-3H,1H3,(H,6,7,8)	InChI=1S/C5H6N2O/c1-4-2-3-6-5(8)7-4/h2-3H,1H3,(H,6,7,8)
