13
gdb 1654	5.24329	1.86723	1.39002	2.3341	52.59	-0.2492	-0.0519	0.1973	813.3809	0.100397	-377.78436	-377.776505	-377.77556	-377.8165	27.371	
N	-0.0497087977	 1.3156309158	 0.1273195639	-0.534112
C	 0.0714070578	-0.0369845969	 0.018389627	 0.260265
N	 1.1216160665	-0.7672166922	-0.0541692294	-0.514955
C	-1.2840095008	-0.7334679575	 0.0105753708	 0.382075
O	-2.3021565745	-0.0826269531	-0.0032759742	-0.303898
C	-1.2580739232	-2.248777025	 0.0137237795	-0.178546
O	-2.5797356326	-2.7261658939	-0.0085032811	-0.402605
H	 0.7349501473	 1.9136625464	-0.0654267261	 0.254391
H	-0.9809669802	 1.6889479314	 0.0185977359	 0.273048
H	 1.977076173	-0.2075559635	-0.0476547764	 0.207194
H	-0.6597712022	-2.5731840793	-0.851033294	 0.13373
H	-0.6933660953	-2.5678477942	 0.9038188247	 0.129815
H	-2.5417900382	-3.6866763782	-0.0161579006	 0.293597
80.8849	92.8559	211.0985	228.5719	287.1498	334.3984	386.4709	402.7426	517.7689	548.5202	615.7308	683.3473	796.4173	872.8124	1016.2342	1043.5068	1099.4771	1146.8684	1156.1145	1231.8717	1239.766	1419.7497	1452.5901	1475.6767	1599.6264	1720.5231	1812.9924	2990.8983	3016.109	3445.9822	3581.7882	3719.2012	3841.2313
NC(=N)C(=O)CO	NC(=N)C(=O)CO	
InChI=1S/C3H6N2O2/c4-3(5)2(7)1-6/h6H,1H2,(H3,4,5)	InChI=1S/C3H6N2O2/c4-3(5)2(7)1-6/h6H,1H2,(H3,4,5)
