15
gdb 4795	6.97166	1.28946	1.09746	1.1859	65.01	-0.178	0.0494	0.2274	1044.9119	0.118914	-399.807679	-399.799727	-399.798783	-399.840357	28.782	
C	-0.1183963851	 1.4149089838	 0.0187723237	-0.244338
O	-0.0162675305	-0.007178803	 0.0219210308	-0.26975
C	-1.159907897	-0.6993171751	 0.0071273777	 0.486999
C	-1.3575935575	-2.0448013964	-0.0372588495	-0.409701
C	-2.7872729263	-2.2178764607	-0.0212326937	 0.253403
N	-3.4433322365	-3.4506425444	-0.1326718031	-0.605373
C	-3.3341630742	-0.9727824557	 0.0346812615	-0.122515
O	-2.3201834567	-0.0208638385	 0.0459490495	-0.198351
H	 0.9077727274	 1.7835629794	 0.0217221109	 0.13569
H	-0.640170264	 1.7729761672	-0.8747066464	 0.134401
H	-0.6465494354	 1.7767752162	 0.9067680401	 0.134257
H	-0.5976394708	-2.806409196	-0.0892082377	 0.103456
H	-2.97004712	-4.1888190109	 0.3722705172	 0.244386
H	-4.4100277407	-3.4112194725	 0.1629964579	 0.241589
H	-4.3375348928	-0.5869406834	 0.0511178512	 0.115844
41.4368	156.2494	208.4479	221.6712	243.4313	350.2329	368.8509	509.5639	558.6095	621.8474	630.5019	681.4895	723.585	739.5373	768.9774	954.5693	1002.0699	1061.4762	1091.9754	1129.3953	1177.6496	1200.1349	1228.5965	1267.3922	1357.8718	1451.3973	1484.4528	1488.8265	1503.0533	1620.3972	1656.7591	1684.7314	3032.8833	3099.5286	3148.6942	3270.1156	3295.424	3537.7906	3627.4439
COC1=CC(N)=CO1	COc1cc(N)co1	
InChI=1S/C5H7NO2/c1-7-5-2-4(6)3-8-5/h2-3H,6H2,1H3	InChI=1S/C5H7NO2/c1-7-5-2-4(6)3-8-5/h2-3H,6H2,1H3
