20
gdb 3069	9.27497	1.00704	0.96636	1.0427	72.4	-0.2293	0.0912	0.3205	1260.8928	0.182828	-291.01602	-291.007622	-291.006678	-291.049188	30.002	
C	-0.0614959847	 1.5392394252	-0.1895622058	-0.378427
C	-0.020808282	 0.0312483374	 0.0724392829	-0.163251
C	-1.402274595	-0.6266067987	-0.001671223	-0.158885
C	-1.3638059164	-2.1319117156	 0.2593388887	-0.139694
N	-2.7049532264	-2.7066724149	 0.2241901337	-0.059295
C	-3.1759810455	-3.1642285081	-1.0791145696	-0.218617
C	-2.7883829193	-4.1404636598	-0.023445203	-0.220408
H	 0.9368191791	 1.9835881297	-0.1269617704	 0.110044
H	-0.4612399822	 1.7569452731	-1.1863220893	 0.113222
H	-0.7002947422	 2.0498663201	 0.5395478479	 0.115072
H	 0.6514994207	-0.4477062691	-0.6520336537	 0.093041
H	 0.418352834	-0.1563612736	 1.0614329129	 0.094912
H	-2.0792916868	-0.1628414307	 0.7261257324	 0.105051
H	-1.8437264191	-0.4445964045	-0.9908378004	 0.093372
H	-0.6890003243	-2.6206035284	-0.4698941695	 0.072917
H	-0.9457610332	-2.325729229	 1.255558199	 0.099542
H	-4.2220066275	-2.9740465027	-1.3018377711	 0.114792
H	-2.5028419182	-3.0625451434	-1.9298709009	 0.105933
H	-1.8589667394	-4.6885763844	-0.1728239863	 0.106116
H	-3.5461743016	-4.6763839525	 0.5412723055	 0.114564
71.167	84.706	127.1788	151.1827	243.4786	299.3212	328.3032	411.0222	477.6157	742.0822	769.5194	805.9264	841.4885	888.7324	921.2534	952.6507	1002.192	1031.274	1047.0521	1072.2769	1112.032	1115.9663	1129.7398	1155.5243	1179.4527	1211.3272	1259.3322	1289.842	1316.3751	1324.2525	1326.2096	1380.9716	1407.4183	1414.7194	1484.4844	1488.1967	1493.565	1499.2346	1501.7163	1513.2991	1523.8211	2915.0072	3010.5212	3018.8454	3029.3909	3036.0529	3037.5402	3068.3568	3089.0063	3094.1217	3095.9441	3101.2006	3172.9133	3187.2335
CCCCN1CC1	CCCCN1CC1	
InChI=1S/C6H13N/c1-2-3-4-7-5-6-7/h2-6H2,1H3	InChI=1S/C6H13N/c1-2-3-4-7-5-6-7/h2-6H2,1H3
