13
gdb 4441	3.50842	1.95746	1.26874	3.7274	58.24	-0.2077	0.0364	0.2441	894.7195	0.094399	-435.757674	-435.750215	-435.749271	-435.789288	27.04	
C	 0.0991299374	 1.4886430908	 0.0399690114	-0.498852
C	-0.0486582634	 0.0179469363	 0.0378608411	 0.21314
C	-1.0866212522	-0.8106090098	-0.0302845124	 0.262552
O	-2.4064831474	-0.5942862499	-0.0532088064	-0.41529
O	-0.648901236	-2.1257654909	 0.0127734094	-0.248048
C	 0.7278228204	-2.0706335153	 0.1112969111	 0.500915
N	 1.5356093237	-3.0310252712	 0.1601485618	-0.57622
O	 1.1053144835	-0.7684485817	 0.1496711211	-0.230576
H	 0.7479009861	 1.8230129253	-0.77726907	 0.145812
H	-0.8824121002	 1.9520760615	-0.0811054236	 0.148546
H	 0.5379843084	 1.8458910732	 0.9785337833	 0.147443
H	-2.8176419181	-1.1919517396	-0.691210523	 0.315942
H	 1.0424235779	-3.9188292387	 0.1255702364	 0.234637
147.4078	173.4201	204.9788	234.6066	250.2402	337.1393	364.1735	560.6317	611.3361	641.0871	660.4496	729.9667	768.7859	822.1975	932.7779	997.6927	1013.6754	1070.7817	1086.2799	1237.1258	1260.5751	1335.6337	1366.2486	1429.6251	1469.489	1494.5613	1792.0915	1870.294	3031.9718	3083.5604	3133.9665	3550.8662	3772.7507
CC1=C(O)OC(=N)O1	CC1=C(O)O[C@@H]([NH])O1	
InChI=1S/C4H5NO3/c1-2-3(6)8-4(5)7-2/h5-6H,1H3	InChI=1S/C4H6NO3/c1-2-3(6)8-4(5)7-2/h4-6H,1H3/t4-/m0/s1
