16
gdb 1730	5.59294	1.44851	1.27462	1.7996	70.58	-0.2265	0.0456	0.2721	984.3284	0.135335	-288.596392	-288.588092	-288.587148	-288.630252	28.736	
C	-0.0026361457	 1.4535861411	 0.0289890575	-0.500291
C	 0.0158848656	-0.0020378765	 0.034418048	 0.068408
C	 0.0296408075	-1.2074481836	 0.046177078	 0.02193
C	 0.0609382105	-2.6494580028	 0.0188580325	 0.180843
C	 1.2203529393	-3.2717628401	-0.736269076	-0.451292
C	-0.5540577428	-3.375844474	 1.1728667092	-0.26523
N	-1.232712911	-3.3683010422	-0.1296601136	-0.34733
H	 0.9140540275	 1.8573539214	-0.4148359753	 0.150829
H	-0.8476983645	 1.840410883	-0.5515603537	 0.148733
H	-0.0844163237	 1.8576884761	 1.0441974257	 0.148074
H	 2.1749166945	-2.988389781	-0.2823117924	 0.121671
H	 1.1300288072	-4.3607153859	-0.7253688164	 0.125858
H	 1.2241232764	-2.936960489	-1.7778803165	 0.127086
H	-0.1418140264	-4.3373988415	 1.4680689821	 0.118231
H	-0.9638177501	-2.782983215	 1.9850267897	 0.117042
H	-1.9921456642	-2.6919313098	-0.1135435688	 0.235438
16.6633	105.8008	133.1981	207.0634	299.9977	308.0556	329.8872	366.2948	532.8442	547.3206	595.0843	794.3176	838.1088	926.9768	980.9166	1028.1626	1050.535	1053.6513	1056.2297	1092.3124	1109.3888	1149.8993	1271.0976	1337.2568	1356.422	1412.2128	1415.2649	1477.0766	1478.7778	1481.3901	1496.0999	1505.9506	2363.3862	3025.2738	3041.0505	3084.5113	3087.5668	3107.9704	3110.7469	3126.224	3198.5508	3505.7416
CC#CC1(C)CN1	CC#C[C@@]1(C)CN1	
InChI=1S/C6H9N/c1-3-4-6(2)5-7-6/h7H,5H2,1-2H3	InChI=1S/C6H9N/c1-3-4-6(2)5-7-6/h7H,5H2,1-2H3/t6-/m0/s1
