13
gdb 2672	20.36739	0.83103	0.80646	1.5608	71.27	-0.2428	-0.0122	0.2306	1316.7682	0.099537	-307.259167	-307.251131	-307.250187	-307.291521	27.659	
O	-0.0971844078	 1.4526867319	 0.0107741895	-0.411826
C	 0.0411117346	 0.0434606554	 0.0019573067	-0.065706
C	-1.3803114495	-0.5352935885	 0.0123999596	-0.357132
C	-1.3966748233	-1.987808569	 0.0049366064	 0.375611
C	-1.396277701	-3.1980409351	-0.0017132708	-0.264844
C	-1.3955769027	-4.5588546534	-0.0090693528	 0.294653
C	-1.3946937285	-5.7664752496	-0.0153525395	-0.555008
H	 0.7811811372	 1.8437108384	 0.0045063352	 0.291785
H	 0.5731474581	-0.3112566729	-0.8929783995	 0.103786
H	 0.5900202154	-0.3207035899	 0.8827969516	 0.103785
H	-1.9034586835	-0.1540194429	 0.8982344274	 0.147491
H	-1.9201261693	-0.1447557671	-0.8592908186	 0.147497
H	-1.3950048396	-6.8279834572	-0.0210836952	 0.189908
80.1923	81.221	167.4019	222.9003	234.5536	361.6521	365.8429	453.1495	543.0243	545.4125	594.653	600.6103	757.3647	793.9675	997.244	1082.8428	1085.5596	1178.4323	1221.2336	1239.0734	1303.9292	1332.0163	1455.9178	1471.2918	1528.2759	2182.9983	2366.5235	2987.6444	3019.3924	3028.9509	3067.4713	3506.3464	3834.4855
OCCC#CC#C	OCCC#CC#C	
InChI=1S/C6H6O/c1-2-3-4-5-6-7/h1,7H,5-6H2	InChI=1S/C6H6O/c1-2-3-4-5-6-7/h1,7H,5-6H2
