15
gdb 2912	4.80683	2.26006	1.9381	3.1961	56.99	-0.2399	-0.0212	0.2188	700.8248	0.125634	-345.665412	-345.658726	-345.657782	-345.696727	23.526	
O	 0.3595451151	-0.1091658793	 0.1799823366	-0.23768
C	 0.1697305271	 1.0682009798	 0.0318277191	 0.14709
C	 1.2615409645	 2.1106522184	-0.1690979616	 0.03037
C	 1.4021719168	 2.983049124	 1.1237522491	-0.267423
C	 2.8618568456	 2.7226556208	 1.5590021596	-0.203298
C	 3.2109155145	 1.4270524203	 0.8171375338	-0.083146
O	 2.5196227865	 1.5299637866	-0.4236843642	-0.233775
H	-0.8590827315	 1.5034656268	 0.0593997542	 0.069714
H	 0.983894503	 2.7198998209	-1.0392419686	 0.098225
H	 1.2083635313	 4.0376900536	 0.9217506376	 0.118368
H	 0.6934921187	 2.6637553265	 1.8944674577	 0.115625
H	 3.5099053515	 3.5342381787	 1.2165542457	 0.113642
H	 2.970132211	 2.635267373	 2.6425476996	 0.108403
H	 4.2751263859	 1.3158216439	 0.5958514235	 0.111819
H	 2.8715968901	 0.542229436	 1.3734402779	 0.112068
59.3483	108.7735	194.5938	299.0921	330.5122	602.9755	665.3312	741.2832	806.5268	840.6313	896.7389	921.8876	947.0356	973.5324	1002.2633	1040.9738	1125.2773	1149.5018	1207.3171	1218.0494	1244.4542	1287.1496	1309.8336	1328.4084	1356.8664	1387.0988	1418.996	1487.4966	1503.8451	1522.3954	1842.1634	2835.9643	3012.9817	3026.4043	3055.7386	3063.0102	3101.258	3108.6321	3122.6391
O=CC1CCCO1	O=C[C@H]1CCCO1	
InChI=1S/C5H8O2/c6-4-5-2-1-3-7-5/h4-5H,1-3H2	InChI=1S/C5H8O2/c6-4-5-2-1-3-7-5/h4-5H,1-3H2/t5-/m1/s1
