9
gdb 112	11.16406	4.28269	3.09529	5.0884	38.8	-0.2491	-0.0216	0.2276	391.0845	0.068192	-263.280728	-263.275534	-263.27459	-263.308973	16.694	
N	 0.1892063849	 1.3414754808	 0.0072161115	-0.389771
C	 0.0565915419	 0.0828899228	 0.0022484837	 0.089917
N	-1.174944591	-0.574008146	 0.0098988718	-0.283316
C	-2.4570329378	-0.0418630905	 0.0247479111	 0.171262
O	-2.7556424067	 1.1201713975	 0.0340111114	-0.253698
H	 1.1793004198	 1.5822774226	-0.0003976517	 0.232089
H	 0.8762784595	-0.6470695388	-0.0086925112	 0.098211
H	-1.1298843491	-1.5814754371	 0.0040388817	 0.256216
H	-3.2022315115	-0.8647940214	 0.0270846616	 0.079088
130.9414	215.0976	263.3168	503.0218	585.7086	825.3006	901.0682	920.7772	1022.2186	1066.262	1168.8549	1256.6341	1426.9704	1450.891	1535.2393	1737.1112	1854.5263	2913.0578	3031.6196	3497.1628	3627.1634
N=CNC=O	N=CNC=O	
InChI=1S/C2H4N2O/c3-1-4-2-5/h1-2H,(H2,3,4,5)	InChI=1S/C2H4N2O/c3-1-4-2-5/h1-2H,(H2,3,4,5)
