17
gdb 4051	5.92596	1.21611	1.02811	0.916	74.19	-0.2302	0.0126	0.2428	1125.6263	0.141322	-363.846953	-363.83893	-363.837986	-363.879332	29.983	
C	-0.0109596326	 1.4635896402	 0.058687986	-0.490446
C	-0.0005895985	-0.0308363963	 0.003980531	 0.335788
C	-0.0415837587	-0.8023874453	-1.08577199	-0.176777
C	-0.0150599031	-2.2768868826	-0.7746951127	-0.341108
C	 0.0515448915	-2.2844777807	 0.7404141843	 0.394636
C	 0.0620312649	-0.8622214618	 1.2698344152	-0.38805
N	 0.0947941534	-3.2896368775	 1.5166919711	-0.218516
O	 0.0734967062	-4.493174277	 0.7845992628	-0.396174
H	 0.8886444386	 1.8488622508	 0.5556920493	 0.126242
H	-0.0613410958	 1.9020633605	-0.9415152465	 0.124517
H	-0.866820527	 1.8337386809	 0.6376278708	 0.126167
H	-0.0894786173	-0.4247745053	-2.1017270803	 0.087777
H	-0.9006937534	-2.8192211924	-1.132968693	 0.130806
H	 0.8450619398	-2.8040242297	-1.2095966173	 0.130815
H	 0.9637075433	-0.6524728007	 1.8610626875	 0.124885
H	-0.7884560448	-0.6679569484	 1.9373050158	 0.124888
H	 0.1103020434	-5.1549238246	 1.4832607863	 0.304551
62.5453	178.1477	205.7846	235.0137	294.3065	316.8702	387.6227	431.9275	473.0218	507.9038	641.9861	693.5743	811.8654	827.1696	882.5234	917.7895	957.3438	984.0938	991.8179	1035.6463	1064.1009	1140.735	1175.9753	1180.5849	1216.0373	1285.585	1297.3244	1344.6175	1401.0467	1414.8842	1460.9398	1467.7334	1478.2839	1488.8548	1720.2426	1764.0605	3011.9008	3016.4518	3017.9705	3033.8995	3035.7263	3062.0065	3111.4662	3187.0352	3818.5931
CC1=CCC(C1)=NO	CC1=CCC(=NO)C1	
InChI=1S/C6H9NO/c1-5-2-3-6(4-5)7-8/h2,8H,3-4H2,1H3	InChI=1S/C6H9NO/c1-5-2-3-6(4-5)7-8/h2,8H,3-4H2,1H3
