19
gdb 2441	3.77076	3.17461	2.47627	0.0753	69.67	-0.2736	0.0815	0.3551	661.041	0.175932	-273.787799	-273.781987	-273.781043	-273.816951	24.312	
C	-0.0119308717	 1.5290504882	-0.0684010824	-0.207909
C	 1.5366663363	 1.4483312655	 0.0177817395	 0.007385
C	 1.3340762539	 0.1224726568	 0.8120375787	-0.227583
C	-0.0035863939	-0.0212232086	 0.0247658674	 0.007385
C	 0.2418694239	-0.6119931225	-1.3747274666	-0.197575
C	 1.6382418864	-0.2092558741	-1.9083519497	-0.193734
C	 2.1086107957	 1.1690654536	-1.3831931036	-0.197575
H	-0.4476916398	 1.9900109639	 0.8227501007	 0.088036
H	-0.4512124398	 1.9852172075	-0.9623001887	 0.080384
H	 2.0639288541	 2.2688533161	 0.5112754931	 0.05369
H	 2.0865845899	-0.666652174	 0.7249284085	 0.086535
H	 1.1504723887	 0.3199444102	 1.8716082307	 0.09192
H	-0.8456023424	-0.5071278844	 0.5244698427	 0.05369
H	 0.1653666271	-1.7054238616	-1.3507641476	 0.088918
H	-0.5509240086	-0.2613817708	-2.0477526005	 0.092626
H	 2.3600243306	-0.9641973386	-1.5791526191	 0.102402
H	 1.6591417228	-0.2363607928	-3.0023052896	 0.089862
H	 1.7924089326	 1.9743932203	-2.0583792032	 0.092626
H	 3.204528694	 1.1942417552	-1.3645463401	 0.088918
199.4913	286.6661	399.7633	409.7975	476.9352	562.6599	757.685	810.3554	812.775	826.5056	844.6639	909.707	917.2005	933.6307	942.7588	955.6475	1038.6584	1057.1149	1094.0616	1105.0482	1117.1089	1119.2525	1130.2651	1224.1078	1241.2441	1241.9359	1258.2654	1276.4314	1316.0031	1331.0545	1336.2915	1358.3496	1380.8765	1383.4483	1476.6617	1492.1752	1495.002	1497.8452	1522.4318	3018.7871	3018.8579	3033.2892	3037.5582	3049.7296	3054.0472	3056.1444	3067.5878	3071.5278	3082.8555	3092.5746	3102.3163
C1C2CC1CCC2	C1[C@H]2C[C@@H]1CCC2	
InChI=1S/C7H12/c1-2-6-4-7(3-1)5-6/h6-7H,1-5H2	InChI=1S/C7H12/c1-2-6-4-7(3-1)5-6/h6-7H,1-5H2/t6-,7+
