16
gdb 295	5.10608	3.28695	2.96998	1.636	56.17	-0.2392	0.0812	0.3205	560.0105	0.141947	-271.626697	-271.619919	-271.618974	-271.656931	24.691	
C	-0.2263065428	 1.5959635023	-0.0356093291	-0.422858
C	 0.0074831105	 0.0912305601	-0.0497840268	 0.445369
C	-1.2575415879	-0.6908844353	 0.2774709696	-0.422854
C	 0.8345843556	-0.4461247427	-1.250417723	-0.322781
C	 1.9012243077	-0.7824565535	-0.1928063639	-0.062461
O	 1.0822971205	-0.267083716	 0.8733255585	-0.320509
H	 0.7006607439	 2.134392937	-0.2526552425	 0.115187
H	-0.9760076381	 1.8805384944	-0.7822093805	 0.111974
H	-0.5837609123	 1.9160501814	 0.9485255125	 0.122316
H	-2.0432520527	-0.4859289749	-0.4581227257	 0.111972
H	-1.0583781522	-1.7663398377	 0.2812360754	 0.115185
H	-1.6327290583	-0.4104377315	 1.2670840616	 0.122319
H	 0.3963554434	-1.3024943826	-1.766450361	 0.104876
H	 1.1221963819	 0.3068278606	-1.9866554413	 0.104877
H	 2.1228676855	-1.8490628285	-0.0618567754	 0.098693
H	 2.8496087554	-0.2379814529	-0.2824325586	 0.098696
69.6516	197.5678	244.4737	312.277	343.2166	394.9386	432.8087	649.9362	785.6581	854.5154	864.6261	917.1523	963.4161	964.7648	1005.4395	1024.027	1035.3484	1163.1526	1175.5792	1210.156	1239.9176	1283.1189	1284.5608	1354.3105	1399.1627	1411.8928	1473.0153	1480.451	1488.5752	1493.6863	1505.3401	1533.7272	3010.7681	3028.8698	3034.5894	3046.2144	3073.8809	3099.1066	3106.4307	3110.0085	3113.2185	3128.1167
CC1(C)CCO1	CC1(C)CCO1	
InChI=1S/C5H10O/c1-5(2)3-4-6-5/h3-4H2,1-2H3	InChI=1S/C5H10O/c1-5(2)3-4-6-5/h3-4H2,1-2H3
