17
gdb 3193	3.93118	3.41816	3.00427	0.2258	67.	-0.232	0.0248	0.2567	589.6468	0.152665	-272.595294	-272.590064	-272.58912	-272.623823	22.312	
C	-0.0249591115	 1.5563988362	 0.0131294838	-0.198353
C	 1.4860992396	 1.9463531715	 0.0013995005	-0.198353
C	 2.2039421002	 0.5525888801	-0.0117270779	-0.047494
C	 1.2397943308	-0.2493503187	-0.9162598411	-0.203406
C	 0.0210920926	-0.010735813	 0.0049780843	-0.047489
C	 0.6115681592	-0.4232371843	 1.3456606009	-0.07281
C	 1.9060174184	-0.0889812648	 1.3358342903	-0.072809
H	-0.5572538592	 1.943345264	 0.8850663301	 0.095373
H	-0.5370432429	 1.9285690831	-0.8796831818	 0.093218
H	 1.7411632409	 2.5163849946	-0.8974140897	 0.09322
H	 1.7772828002	 2.545898215	 0.8669017735	 0.095366
H	 3.2529719011	 0.5912061091	-0.3072798069	 0.05481
H	 1.1210174014	 0.1812007387	-1.9167404597	 0.084077
H	 1.5115320076	-1.3047193922	-0.9976512953	 0.092981
H	-0.919770492	-0.4855905936	-0.2753730718	 0.054808
H	 0.0358523111	-0.8054584104	 2.1798223204	 0.088427
H	 2.6066305226	-0.1416848853	 2.1602933905	 0.088433
258.1074	380.9777	475.2865	484.4797	675.5935	736.029	776.2002	800.0831	818.872	839.6388	885.9154	912.7768	921.8531	946.1465	953.9215	964.0864	974.5019	1038.2731	1053.2553	1116.5452	1139.2782	1149.4795	1187.9294	1190.6867	1237.259	1282.2702	1290.1147	1302.8006	1310.427	1330.5519	1365.6192	1488.1113	1489.9625	1511.4211	1643.1145	3042.6732	3046.7505	3059.2172	3092.2652	3104.6759	3105.0155	3110.1251	3111.329	3191.2094	3217.3194
C1CC2CC1C=C2	C1C[C@@H]2C[C@H]1C=C2	
InChI=1S/C7H10/c1-2-7-4-3-6(1)5-7/h1-2,6-7H,3-5H2	InChI=1S/C7H10/c1-2-7-4-3-6(1)5-7/h1-2,6-7H,3-5H2/t6-,7+
