13
gdb 2010	5.93688	2.13799	2.09202	2.2231	54.87	-0.2522	-0.0431	0.2091	652.3392	0.100545	-344.385047	-344.378878	-344.377934	-344.416181	22.114	
O	-0.3007812139	 0.3510632224	-0.5611607014	-0.247328
C	 0.124353287	 1.1507316608	 0.2322622384	 0.035831
C	 1.3820295122	 1.930832427	 0.018587763	 0.321494
C	 2.8612469367	 1.4526211687	 0.1436165464	-0.244425
C	 2.818590147	 2.9911944674	-0.004703796	 0.049525
C	 1.7991413213	 2.8532940793	-1.1598137385	-0.245014
O	 1.6898301576	 3.0294077316	 0.9609059124	-0.340787
H	-0.3835683189	 1.3669625739	 1.1978574636	 0.100685
H	 3.1400722187	 1.0873257859	 1.1320887577	 0.118135
H	 3.2721215089	 0.8584413473	-0.6747659824	 0.113819
H	 3.6136809513	 3.7224210602	 0.1343423644	 0.106496
H	 2.1227020152	 2.3778589049	-2.0873372325	 0.113579
H	 1.1504282969	 3.7153514606	-1.3153423851	 0.11799
25.9196	187.4035	239.9066	448.8748	521.3753	590.1703	682.1008	758.0538	775.8922	906.3951	911.4837	931.8989	980.8062	999.0848	1006.0003	1090.9272	1105.4217	1118.074	1164.7905	1213.2026	1233.6447	1236.4388	1299.7667	1403.4482	1466.0809	1507.8547	1824.9193	2896.1784	3073.9801	3080.5971	3130.5295	3158.9841	3163.9928	25.914	187.4031	239.9064	448.8749	521.3753	590.1703	682.1008	758.0536	775.892	906.395	911.4836	931.8988	980.8063	999.0848	1006.0002	1090.9273	1105.4218	1118.0743	1164.7906	1213.2026	1233.6444	1236.4385	1299.7667	1403.4484	1466.0811	1507.855	1824.9191	2896.1784	3073.98	3080.5971	3130.5295	3158.9841	3163.9928
O=CC12CC(C1)O2	O=C[C@@]12C[C@@H](C1)O2	
InChI=1S/C5H6O2/c6-3-5-1-4(2-5)7-5/h3-4H,1-2H2	InChI=1S/C5H6O2/c6-3-5-1-4(2-5)7-5/h3-4H,1-2H2/t4-,5+
