11
gdb 3870	3.95724	3.38605	1.82875	2.7985	48.44	-0.2139	0.0054	0.2193	625.8878	0.079527	-376.556657	-376.550539	-376.549595	-376.586389	22.589	
N	-0.020185746	 1.4426031031	-0.1349845648	-0.615934
C	-0.0357511582	 0.0479922915	-0.0432868774	 0.068531
C	-1.0533342667	-0.8501724796	 0.0366436819	 0.01942
O	-0.5757599417	-2.1179330147	 0.0271255809	-0.181309
N	 0.8099794157	-2.0750618395	-0.0653231277	-0.248673
C	 1.1091899296	-0.8025951752	-0.105671602	 0.421525
O	 2.3713112198	-0.3425908391	-0.1871468299	-0.427688
H	 0.8674965511	 1.8295591959	 0.1585820175	 0.258835
H	-0.7731713457	 1.88980565	 0.3704018899	 0.25108
H	-2.1246981044	-0.7502459592	 0.1043518589	 0.140045
H	 2.9644740865	-1.1050944831	-0.2020502872	 0.314168
173.171	250.6545	268.0157	352.2948	439.8872	489.7399	574.0532	643.7769	710.3697	740.3992	774.8737	791.6338	910.0856	972.961	1119.0952	1139.4889	1211.4339	1301.0277	1351.9105	1512.4887	1585.0436	1650.0751	1707.3454	3269.7935	3544.0697	3635.96	3788.4949
NC1=CON=C1O	Nc1conc1O	
InChI=1S/C3H4N2O2/c4-2-1-7-5-3(2)6/h1H,4H2,(H,5,6)	InChI=1S/C3H4N2O2/c4-2-1-7-5-3(2)6/h1H,4H2,(H,5,6)
