11
gdb 3878	7.43042	2.27762	1.75147	3.666	48.81	-0.2105	0.0315	0.242	658.8282	0.080574	-372.768039	-372.761951	-372.761007	-372.797595	22.526	
N	 0.1100634658	 1.3211153948	 0.1551645286	-0.593221
C	 0.0023203435	-0.0423573895	 0.0226963495	 0.447858
N	-1.0529797523	-0.7806704434	 0.0047159529	-0.294707
N	-0.5861379062	-2.1168679068	-0.0082297334	-0.294707
C	 0.6991675952	-2.0373225614	-0.0356111777	 0.447862
N	 1.6316745704	-3.0373047198	-0.1722852563	-0.593221
O	 1.169526807	-0.7537425054	-0.0096792366	-0.199192
H	 0.8341316298	 1.7374048031	-0.4153308282	 0.265291
H	-0.7839703459	 1.7758063128	 0.0286395677	 0.274372
H	 1.216302372	-3.9495352065	-0.0405666061	 0.274372
H	 2.4614826407	-2.9106640379	 0.3919987896	 0.265292
211.5375	253.0602	283.6138	339.943	364.6025	480.737	649.4874	660.6016	678.1281	735.3284	754.5787	798.4198	977.7955	999.1584	1021.853	1146.9154	1160.3054	1346.7694	1473.0162	1601.7645	1618.7031	1664.9498	1725.6184	3553.5103	3554.0396	3656.6403	3656.7983
NC1=NN=C(N)O1	Nc1nnc(N)o1	
InChI=1S/C2H4N4O/c3-1-5-6-2(4)7-1/h(H2,3,5)(H2,4,6)	InChI=1S/C2H4N4O/c3-1-5-6-2(4)7-1/h(H2,3,5)(H2,4,6)
