14
gdb 482	6.06624	3.74807	2.96204	1.1413	53.1	-0.2475	0.0834	0.3309	499.7541	0.120085	-270.397623	-270.392001	-270.391057	-270.426196	21.746	
O	-0.0568468359	 1.4290857091	 0.0411079547	-0.460353
C	-0.0111284829	 0.0455493618	 0.050895092	 0.40876
C	-0.2898476383	-0.7803247331	-1.1726993386	-0.333008
C	-1.1875078687	-0.9194384771	 0.0402568779	-0.093846
C	-0.4933535978	-1.7966493926	 1.0891043423	-0.215236
C	 0.7011414059	-0.7831902522	 1.1272664895	-0.28804
H	 0.6588585329	 1.7523018315	-0.517053009	 0.283774
H	-0.7295000541	-0.2195352318	-1.9916344092	 0.110233
H	 0.3660393352	-1.5949693785	-1.4757420655	 0.099111
H	-2.2485867232	-0.7113734003	-0.0182505851	 0.090921
H	-1.0281404806	-1.8480037258	 2.0397154529	 0.105067
H	-0.2524531323	-2.8148612967	 0.7665411869	 0.095372
H	 1.6981086936	-1.1645238333	 0.8805743977	 0.087508
H	 0.7495722461	-0.247936571	 2.0781949835	 0.109738
215.2837	259.2562	363.7937	398.2423	439.9871	616.1178	704.5884	787.9795	849.6358	884.436	917.9879	959.5355	964.3547	1014.337	1023.298	1073.8494	1092.8434	1147.639	1213.6276	1221.379	1228.2941	1255.638	1301.2123	1319.9219	1400.4733	1478.4782	1480.8957	1514.0375	3039.5621	3050.5222	3094.9153	3099.5065	3117.439	3189.0184	3199.6474	3793.4774
OC12CC1CC2	O[C@]12C[C@H]1CC2	
InChI=1S/C5H8O/c6-5-2-1-4(5)3-5/h4,6H,1-3H2	InChI=1S/C5H8O/c6-5-2-1-4(5)3-5/h4,6H,1-3H2/t4-,5-/m1/s1
