14
gdb 626	7.20671	2.61755	2.28942	2.6757	54.41	-0.2425	-0.0086	0.2339	601.0355	0.118794	-270.446608	-270.440064	-270.43912	-270.476956	23.02	
C	-0.0421397858	 1.4771511908	 0.0419472259	-0.484509
C	 0.0288156691	-0.0366309359	-0.0226376392	 0.388516
O	 1.0863993108	-0.6299964872	-0.0768997551	-0.327448
C	-1.2763691062	-0.762301971	-0.0158376967	-0.100609
C	-1.3564756369	-2.0579736019	-0.8117729629	-0.245688
C	-1.3148232709	-2.1188152732	 0.6749669301	-0.245676
H	 0.9626798927	 1.9004546387	 0.0306059564	 0.140279
H	-0.6181400997	 1.8649941527	-0.8063427852	 0.138987
H	-0.5675699687	 1.7922484799	 0.9510416338	 0.13902
H	-2.1707440405	-0.1513441837	 0.0342649495	 0.08504
H	-2.2894978265	-2.2675842081	-1.321942134	 0.117117
H	-0.4544272469	-2.3304581974	-1.3473866854	 0.138929
H	-0.3848913676	-2.4320718984	 1.1353120389	 0.138921
H	-2.2183516828	-2.3714760653	 1.2176817539	 0.117121
71.2697	137.3484	238.3722	255.8734	371.0257	590.0517	603.3427	749.5822	805.9507	831.0543	874.2181	919.4648	965.3873	1050.6141	1064.5196	1097.6012	1109.7528	1131.0819	1189.2825	1211.0681	1223.5534	1374.703	1407.3129	1451.7602	1463.3666	1474.8826	1484.192	1792.6418	3032.5692	3091.9021	3141.1143	3142.5996	3153.0458	3171.7813	3228.8025	3243.2648
CC(=O)C1CC1	CC(=O)C1CC1	
InChI=1S/C5H8O/c1-4(6)5-2-3-5/h5H,2-3H2,1H3	InChI=1S/C5H8O/c1-4(6)5-2-3-5/h5H,2-3H2,1H3
