12
gdb 606	6.3441	3.06012	2.36016	1.2269	52.51	-0.2506	0.0359	0.2864	545.6297	0.094612	-269.177232	-269.17084	-269.169895	-269.206904	23.083	
O	 0.0809795573	 1.3828511454	 0.0751978978	-0.426495
C	 0.0285827981	-0.0042061653	 0.0499247247	 0.145798
C	-0.3873663672	-0.7663611209	 1.2706339343	-0.311087
C	-1.3234740499	-0.7121191131	 0.0599965823	-0.224857
C	-2.4889665637	 0.1162209391	 0.0989421282	 0.281477
C	-3.4205503056	 0.8803272433	 0.1029688119	-0.43734
H	-0.810812219	 1.7205658312	-0.0836226923	 0.290593
H	 0.7948099072	-0.4393954813	-0.5866657288	 0.105758
H	 0.0838915691	-1.7184061212	 1.488277621	 0.120584
H	-0.6778421085	-0.1799295612	 2.1342147624	 0.133997
H	-1.4093707066	-1.6156096557	-0.5352806908	 0.118873
H	-4.2701716112	 1.5169827997	 0.1274276894	 0.2027
139.3399	144.8226	226.6617	376.6857	406.6754	533.2885	591.261	636.2965	664.3911	759.7212	783.5377	860.5536	965.1892	1015.8818	1052.2756	1112.4382	1122.6183	1148.7406	1228.3756	1359.7941	1367.0492	1413.9585	1472.6515	2225.1328	3138.3206	3141.9515	3158.5528	3238.4177	3503.0011	3742.1205
OC1CC1C#C	O[C@H]1C[C@H]1C#C	
InChI=1S/C5H6O/c1-2-4-3-5(4)6/h1,4-6H,3H2	InChI=1S/C5H6O/c1-2-4-3-5(4)6/h1,4-6H,3H2/t4-,5+/m1/s1
