19
gdb 4081	3.81428	1.50024	1.17887	0.9135	74.91	-0.2368	0.0158	0.2526	1043.6332	0.167456	-365.051483	-365.043844	-365.0429	-365.083301	29.867	
O	-0.0312801633	 1.3738947698	 0.0239840067	-0.400044
N	 0.061433382	-0.0316287116	 0.0224556203	-0.199202
C	-1.0810304002	-0.6030890939	 0.0015314943	 0.387011
C	-2.4296427351	 0.0722821619	 0.0106166556	-0.291881
C	-3.321789803	-0.5094119497	 1.1275696807	-0.193177
C	-3.3891569179	-2.0414817295	 1.0674955617	-0.183059
C	-1.9864426548	-2.6623234964	 1.1212987527	-0.191836
C	-1.0888599897	-2.110750726	-0.0038822015	-0.267725
H	 0.8957698186	 1.6305981549	 0.0564841846	 0.303533
H	-2.3154941181	 1.150842146	 0.1170396865	 0.130364
H	-2.911338204	-0.1121536375	-0.9606026115	 0.108396
H	-2.9171603816	-0.2031818389	 2.1009036917	 0.104532
H	-4.32571149	-0.0771714077	 1.0553685308	 0.095065
H	-4.0044277947	-2.4237784387	 1.8896555588	 0.093697
H	-3.8870438381	-2.3483282919	 0.1367509952	 0.092362
H	-1.524892055	-2.4358196337	 2.0912972734	 0.102758
H	-2.0443401632	-3.7536375781	 1.0461349651	 0.094405
H	-1.4857269762	-2.4563061992	-0.9700978155	 0.102854
H	-0.0637303758	-2.47980821	 0.0795479802	 0.111947
83.2469	175.9545	265.2891	304.8837	329.5788	386.1771	401.7405	435.6725	486.9064	571.6788	660.7275	769.2509	789.4349	843.3773	868.8245	905.599	937.1739	970.8117	1004.1078	1031.4567	1080.2219	1100.7378	1129.8165	1154.1127	1245.8849	1264.9003	1273.1707	1292.3962	1345.6761	1353.3826	1363.8687	1377.0366	1380.2129	1415.5899	1472.6567	1479.3988	1486.794	1490.0648	1503.0488	1736.4209	2999.9844	3009.1012	3009.7115	3023.8667	3026.2425	3063.861	3069.0404	3073.8154	3100.5085	3134.6509	3826.5921
ON=C1CCCCC1	ON=C1CCCCC1	
InChI=1S/C6H11NO/c8-7-6-4-2-1-3-5-6/h8H,1-5H2	InChI=1S/C6H11NO/c8-7-6-4-2-1-3-5-6/h8H,1-5H2
