16
gdb 4010	4.10811	1.12048	0.9023	6.5567	69.47	-0.2347	-0.0764	0.1583	1242.6902	0.129307	-416.991713	-416.983002	-416.982058	-417.025505	29.84	
C	-0.0331716446	 1.5169061966	 0.0135548218	-0.318294
N	-0.2366080226	 0.1230939219	 0.399597155	-0.301066
H	-1.0555974769	 0.0503793154	 0.9960156386	 0.232978
H	-0.396814323	-1.8444037934	-0.4157716442	 0.262303
C	 0.9074863247	-0.4778409867	 1.0822338367	-0.222198
C	 0.7643688302	-1.9824982209	 1.1600182253	 0.155705
C	 1.4363587048	-2.7477748081	 2.2059946255	 0.090508
O	 1.4469677094	-3.9516583151	 2.3335284433	-0.263154
N	 0.0254307262	-2.5509210787	 0.2179824865	 0.073806
O	-0.2402776834	-3.7492093872	 0.0178746375	-0.39385
H	 0.7685730998	 1.5751553756	-0.7296444078	 0.135493
H	-0.9470459323	 1.9010447228	-0.4468532662	 0.132284
H	 0.2360593363	 2.1773524774	 0.8539316581	 0.109666
H	 1.8052334679	-0.2068838067	 0.5074914617	 0.131337
H	 1.0749136951	-0.0824624972	 2.099189227	 0.11026
H	 1.9704034284	-2.0876116858	 2.9295930413	 0.064222
65.8531	112.9664	158.4374	182.4886	211.9098	248.7085	299.4672	355.4539	393.3315	411.6014	507.1016	741.2066	811.1671	934.5882	967.4594	975.684	1022.109	1059.9308	1136.4619	1153.2156	1183.1451	1206.9351	1287.4318	1374.9908	1429.1964	1445.173	1462.9255	1479.0834	1492.7747	1495.9293	1512.9646	1519.378	1641.0959	1787.551	2847.6672	2952.5858	2974.5967	3006.4609	3072.741	3118.1756	3209.1376	3510.0927
C[NH2+]CC(C=O)=N[O-]	CNC[C](C=O)N[O]	
InChI=1S/C4H8N2O2/c1-5-2-4(3-7)6-8/h3,5,8H,2H2,1H3	InChI=1S/C4H8N2O2/c1-5-2-4(3-7)6-8/h3,5-6H,2H2,1H3
