18
gdb 4958	3.16709	2.15256	1.3021	0.5519	81.87	-0.2301	0.0071	0.2372	951.2588	0.155304	-310.751165	-310.743605	-310.742661	-310.782636	29.116	
C	 0.0109766605	 1.5211489578	-0.017419741	-0.496096
C	 0.0100139196	 0.0125518286	-0.0034801796	 0.241922
C	-0.0086229154	-0.7001443078	-1.2036358889	-0.180565
C	-0.010261104	-2.0925158689	-1.2230491406	-0.11632
C	 0.007061515	-2.7940236872	-0.023020076	-0.11632
C	 0.0256941671	-2.0938617576	 1.1805181477	-0.180566
C	 0.0274665905	-0.6982864617	 1.2125118839	 0.241922
C	 0.0479595737	 0.0298395735	 2.5336752748	-0.496096
H	 0.8947669798	 1.9323142173	 0.485282179	 0.12743
H	 0.0012723204	 1.9049286479	-1.0407005145	 0.120015
H	-0.8626224058	 1.9333765106	 0.5021117025	 0.127548
H	-0.0220283926	-0.1502365999	-2.1404315602	 0.084838
H	-0.0249226605	-2.6222372876	-2.1698835137	 0.091228
H	 0.0060962253	-3.8790602988	-0.0199083079	 0.091228
H	 0.0391588342	-2.6403690438	 2.1193007535	 0.084838
H	 0.9310939237	 0.6730928089	 2.6301048488	 0.127539
H	-0.8262082347	 0.6813564528	 2.6529572085	 0.127439
H	 0.055648973	-0.6734849942	 3.3701918436	 0.120015
135.7947	169.4916	177.0448	259.7656	298.1428	408.5532	450.4824	508.1353	521.8979	588.5517	732.7512	746.3036	766.5091	833.2669	883.2088	926.7187	968.9476	1005.4037	1010.1506	1044.6159	1073.9932	1076.0171	1140.1793	1184.855	1202.9865	1248.2872	1310.9527	1333.655	1411.7657	1423.4281	1464.7727	1477.6512	1493.8478	1494.0005	1501.6034	1524.062	1618.3785	1647.6854	3022.2838	3022.9779	3068.4124	3070.3001	3111.9159	3113.3295	3159.7678	3164.1057	3179.0454	3194.5182
CC1=CC=CC=C1C	Cc1ccccc1C	
InChI=1S/C8H10/c1-7-5-3-4-6-8(7)2/h3-6H,1-2H3	InChI=1S/C8H10/c1-7-5-3-4-6-8(7)2/h3-6H,1-2H3
