11
gdb 887	7.03954	2.26209	1.73043	4.8929	48.41	-0.2414	0.0124	0.2538	672.3819	0.078484	-380.446861	-380.440987	-380.440042	-380.476551	21.041	
C	 0.0611446646	 1.487303405	 0.0565897193	-0.488354
C	-0.0733423491	 0.0151577122	-0.0061639336	 0.319701
C	-1.0758056127	-0.8196173787	-0.2707457707	-0.133336
O	-0.6221416981	-2.1238694753	-0.1840559757	-0.208957
C	 0.7034037782	-2.069937152	 0.145504318	 0.502168
O	 1.4240702387	-3.0003926808	 0.3058093655	-0.369026
O	 1.0546938049	-0.7506795001	 0.2584902657	-0.240772
H	 0.8061656616	 1.8448953663	-0.6621480922	 0.154287
H	-0.8973532937	 1.9587516657	-0.1713849316	 0.145349
H	 0.3805795695	 1.8103084581	 1.053211797	 0.1543
H	-2.1102339539	-0.6729092903	-0.5248843116	 0.16464
172.4581	185.0286	285.9461	314.4888	546.0447	598.7883	629.4548	741.1521	773.7039	784.7748	912.9571	965.7818	1019.3373	1068.6287	1070.2498	1145.7833	1260.1943	1330.679	1423.3381	1467.6488	1489.4833	1747.6529	1941.3336	3039.0716	3095.4654	3134.2891	3306.6965
CC1=COC(=O)O1	Cc1coc(=O)o1	
InChI=1S/C4H4O3/c1-3-2-6-4(5)7-3/h2H,1H3	InChI=1S/C4H4O3/c1-3-2-6-4(5)7-3/h2H,1H3
