15
gdb 1950	8.68697	1.5115	1.416	4.9629	61.78	-0.2491	0.0181	0.2672	857.3534	0.126064	-304.691748	-304.684761	-304.683817	-304.722776	25.318	
C	-0.2902032048	 1.4707254308	 0.0506245706	-0.406614
C	 0.0438072773	-0.0153205917	-0.0088901132	 0.071525
C	 0.849472007	-0.4612746309	-1.2602806474	-0.254801
C	 2.0943927436	-0.4890795093	-0.3245925911	-0.10894
N	 1.1862824056	-0.4523157369	 0.8417105732	-0.311209
C	 2.9723478725	-1.6590044602	-0.3924726337	 0.290863
N	 3.6700826151	-2.5775140777	-0.4653329293	-0.323427
H	 0.5836283054	 2.0901045789	-0.1824741619	 0.11648
H	-1.081184253	 1.7197219762	-0.6651354719	 0.126071
H	-0.6471609572	 1.7484413024	 1.0486549343	 0.124287
H	-0.8590438833	-0.6032973272	 0.1888281992	 0.087385
H	 0.5778828913	-1.4514096501	-1.6255550452	 0.135006
H	 0.8974110785	 0.239602169	-2.0941544829	 0.118193
H	 2.7184085341	 0.4057657293	-0.4508803497	 0.112371
H	 1.460341988	 0.1872737474	 1.580391929	 0.222809
77.3685	155.7845	241.6353	253.4025	338.3315	396.2144	537.8059	560.6701	632.0259	779.1964	810.2808	904.7117	913.0424	957.8121	1001.5594	1041.9656	1084.2262	1107.1429	1138.0786	1179.947	1248.7724	1259.8881	1310.6631	1342.5862	1365.4971	1408.6856	1418.1188	1485.7089	1493.1176	1496.3062	2356.4627	3010.4107	3024.2091	3038.7913	3093.7089	3094.9534	3098.2417	3154.9309	3523.6325
CC1CC(N1)C#N	C[C@H]1C[C@@H](N1)C#N	
InChI=1S/C5H8N2/c1-4-2-5(3-6)7-4/h4-5,7H,2H2,1H3	InChI=1S/C5H8N2/c1-4-2-5(3-6)7-4/h4-5,7H,2H2,1H3/t4-,5+/m0/s1
