18
gdb 1144	5.10299	1.83499	1.73871	1.9153	64.99	-0.2066	0.0692	0.2757	820.2803	0.158373	-326.95054	-326.942603	-326.941659	-326.982019	29.667	
C	-0.0046001534	 1.5334227456	 0.0306618016	-0.318963
N	-0.0071163803	 0.0920914697	 0.0945946964	-0.058808
C	-1.243972246	-0.5980682608	 0.503613034	-0.187589
C	-0.3975908817	-1.5992602207	 1.3280094999	 0.407609
C	-0.8500999052	-1.9296849178	 2.7414536616	-0.452408
O	-0.2209902444	-2.7759879921	 0.5575384709	-0.475579
C	 0.7625575849	-0.5705425643	 1.1613300272	-0.212656
H	 1.0009746191	 1.8940545054	-0.2117813548	 0.118896
H	-0.6805568043	 1.8723730746	-0.7619094831	 0.120083
H	-0.3205314467	 2.0164300242	 0.9772654879	 0.082308
H	-1.90379584	 0.0132832023	 1.1409687318	 0.076506
H	-1.826290754	-1.0298451474	-0.316587819	 0.109783
H	-1.7647389909	-2.5303175294	 2.7147333927	 0.126782
H	-0.080924275	-2.5084232497	 3.2690159138	 0.106434
H	-1.0422197987	-1.0252417396	 3.3256552161	 0.116309
H	 0.434582517	-3.3248204785	 1.0016790488	 0.273924
H	 1.733642241	-0.9720145855	 0.8475653606	 0.092727
H	 0.9031275585	 0.0528822743	 2.0606158837	 0.074641
91.9759	222.6071	232.2748	261.5794	300.2143	307.5337	313.5918	372.2945	424.3725	469.5164	603.343	755.8594	872.2148	920.6632	955.1473	967.6444	973.8312	1004.9734	1113.6715	1117.7976	1134.3607	1160.9658	1190.3474	1229.7116	1261.4352	1272.8288	1303.1552	1334.5128	1393.8576	1410.4501	1451.9957	1485.1739	1487.7392	1490.6782	1494.9359	1499.3258	1516.4971	2904.9375	2955.1796	2969.865	3022.4026	3044.099	3051.7791	3070.218	3089.4398	3094.7822	3115.6236	3800.4336
CN1CC(C)(O)C1	CN1CC(C)(O)C1	
InChI=1S/C5H11NO/c1-5(7)3-6(2)4-5/h7H,3-4H2,1-2H3	InChI=1S/C5H11NO/c1-5(7)3-6(2)4-5/h7H,3-4H2,1-2H3
