12
gdb 611	5.82523	3.24687	2.56193	3.1275	47.64	-0.2601	-0.0431	0.2169	529.1334	0.094493	-306.353871	-306.347682	-306.346738	-306.383531	21.263	
C	 0.1737353531	 1.548214102	-0.00660341	-0.430521
C	 0.0025181572	 0.0587285899	 0.1194823852	 0.090166
O	 1.1355283118	-0.7573665405	-0.1250133026	-0.223519
C	 0.618993664	-0.7651720166	 1.2012791002	-0.043857
C	 1.4452611733	-0.1440131464	 2.2819946152	 0.143484
O	 2.3559862425	 0.6246177003	 2.105311257	-0.245471
H	 1.1053002035	 1.8737591249	 0.4578427779	 0.165306
H	 0.1946742136	 1.8250698858	-1.0657666328	 0.135057
H	-0.6690875234	 2.0694358761	 0.4592601807	 0.123089
H	-0.9267622551	-0.3451248091	-0.2888030513	 0.10179
H	 0.104687154	-1.6815095482	 1.4963268809	 0.103539
H	 1.1304708755	-0.4471445282	 3.3064109797	 0.080938
131.719	195.6147	217.2592	267.9332	375.2973	463.5229	739.1044	785.2938	824.0931	889.3808	967.5793	1010.1287	1055.574	1097.0563	1165.5289	1168.8022	1279.5332	1381.4139	1409.2163	1424.2973	1446.983	1490.0935	1502.8518	1825.2859	2875.8298	3042.9511	3083.7181	3102.917	3104.3216	3154.2119
CC1OC1C=O	C[C@H]1O[C@H]1C=O	
InChI=1S/C4H6O2/c1-3-4(2-5)6-3/h2-4H,1H3	InChI=1S/C4H6O2/c1-3-4(2-5)6-3/h2-4H,1H3/t3-,4+/m1/s1
