19
gdb 4906	4.88157	1.22878	1.05526	1.8527	79.85	-0.1901	0.0509	0.241	1181.3534	0.166025	-327.97887	-327.9702	-327.969256	-328.01243	31.706	
C	-0.2272831677	 1.5343860182	 0.0389655506	-0.359614
C	 0.1391445056	 0.0441180583	-0.066527893	-0.295376
C	 0.7916771899	-0.500406639	 1.1718913453	 0.298238
C	 2.1076266735	-0.8774518761	 1.3071830324	-0.194142
N	 2.3037994604	-1.2979003704	 2.6025240371	-0.296938
C	 1.1305363274	-1.2018705799	 3.3131141005	 0.328189
C	 1.0406748677	-1.5975958411	 4.7502061555	-0.501547
C	 0.1800164161	-0.708948325	 2.447483118	-0.325785
H	 0.6655542449	 2.1426359514	 0.2153117704	 0.113985
H	-0.7083698864	 1.889638035	-0.8786272272	 0.102664
H	-0.9158520582	 1.711821854	 0.8712836996	 0.115617
H	-0.7700309979	-0.529079919	-0.2913934662	 0.098151
H	 0.8089933592	-0.1032937317	-0.9221013746	 0.092351
H	 2.9142856476	-0.8825861329	 0.5908069377	 0.107438
H	 3.1734952612	-1.6379382055	 2.973828828	 0.252286
H	 1.7122584228	-1.0077584426	 5.3872262038	 0.123533
H	 0.0225812847	-1.4420968529	 5.1143469275	 0.136406
H	 1.2892245102	-2.6550873861	 4.9074121989	 0.123293
H	-0.853320261	-0.5200960548	 2.7013494456	 0.081251
50.9959	100.968	132.177	194.1549	238.9235	284.899	375.804	404.4703	456.3945	576.2749	644.7352	673.8756	708.6468	724.6169	786.7479	807.885	947.8146	974.9043	1005.1156	1015.0977	1061.7024	1063.9983	1087.729	1134.9914	1176.0613	1253.5918	1299.0229	1311.5351	1362.4195	1405.4174	1416.421	1429.748	1449.4183	1480.4455	1484.1609	1495.3281	1503.0841	1506.9008	1553.3746	1636.5533	3012.9975	3014.9907	3031.2744	3052.2033	3055.4631	3100.4018	3107.1126	3121.6659	3231.6727	3253.6053	3678.8285
CCC1=CNC(C)=C1	CCc1c[nH]c(C)c1	
InChI=1S/C7H11N/c1-3-7-4-6(2)8-5-7/h4-5,8H,3H2,1-2H3	InChI=1S/C7H11N/c1-3-7-4-6(2)8-5-7/h4-5,8H,3H2,1-2H3
