11
gdb 243	8.68161	2.49189	1.95985	5.6602	45.18	-0.2511	-0.0298	0.2213	600.473	0.083351	-322.479769	-322.473128	-322.472183	-322.510598	21.535	
C	-0.0117024135	 1.5406295138	-0.0622483041	-0.50083
C	-0.0262207852	 0.0374078102	 0.1659024986	 0.417517
O	-0.0925050695	-0.4777585769	 1.2498065622	-0.286209
N	 0.0489958611	-0.6938516007	-1.0358432901	-0.339685
C	 0.0614720786	-2.0769532621	-1.2001423424	 0.169347
O	 0.009451128	-2.9035706566	-0.3336996281	-0.24916
H	 0.908167985	 1.8488212355	-0.5708729173	 0.144651
H	-0.8576979015	 1.8489248941	-0.6859866927	 0.144348
H	-0.0745421561	 2.0391846565	 0.9039579644	 0.161686
H	 0.1012365975	-0.1581045414	-1.8901725168	 0.254981
H	 0.1281999957	-2.3274673623	-2.2795691436	 0.083355
71.1079	98.547	201.0965	217.2793	367.2739	517.0751	571.6263	642.3831	752.7579	889.128	1010.3822	1027.3048	1053.3858	1133.4277	1211.653	1385.6969	1447.6803	1466.2605	1481.894	1506.8885	1818.2971	1879.1433	2914.1337	3041.068	3103.7889	3168.5743	3608.8064
CC(=O)NC=O	CC(=O)NC=O	
InChI=1S/C3H5NO2/c1-3(6)4-2-5/h2H,1H3,(H,4,5,6)	InChI=1S/C3H5NO2/c1-3(6)4-2-5/h2H,1H3,(H,4,5,6)
