17
gdb 2466	4.27085	2.60171	2.37208	1.8531	62.67	-0.2547	0.0908	0.3455	667.2061	0.14988	-309.720011	-309.713672	-309.712728	-309.749852	24.818	
C	 0.5835839329	 1.4426909392	 0.038531995	-0.392333
C	-0.0847279768	 0.0624813674	 0.0009413361	 0.023514
C	 0.3774748362	-0.7883203112	-1.2208102926	-0.250142
C	 1.4350967801	-1.724391269	-0.6745084442	 0.058554
O	 2.4427855175	-1.0659765288	 0.1089373245	-0.257243
C	 1.3689423084	-1.7322810654	 0.7913112156	 0.058554
C	 0.2659570007	-0.8016203324	 1.2501492109	-0.250142
H	 1.6706451759	 1.34325234	 0.087055962	 0.140219
H	 0.3302365266	 2.0240985199	-0.8549176667	 0.105018
H	 0.2505078776	 2.0145885785	 0.9117246703	 0.105018
H	-1.1679701342	 0.2114649056	-0.0471450694	 0.07162
H	-0.4465224662	-1.3891151878	-1.6250871171	 0.097953
H	 0.7537244677	-0.1630303723	-2.0373194942	 0.106601
H	 1.7842661952	-2.5745180889	-1.2561350198	 0.089127
H	 1.6647138561	-2.5887762669	 1.3928587692	 0.089127
H	 0.5668256464	-0.185320528	 2.10390045	 0.106601
H	-0.590815364	-1.4063236497	 1.5720823202	 0.097953
141.6817	235.2402	289.7744	376.7176	379.2545	409.6086	663.3767	721.94	797.4155	807.1015	863.1058	884.1003	912.693	933.8371	968.4888	997.0544	1030.8871	1048.593	1094.1574	1137.366	1139.9275	1200.7534	1244.2221	1245.3875	1275.7369	1318.1188	1326.0036	1361.0184	1365.9261	1404.0429	1447.0991	1475.869	1483.9339	1498.7646	1510.4923	3029.1245	3029.9871	3031.7417	3053.8615	3076.0784	3079.2097	3091.1135	3126.622	3134.5351	3147.6619
CC1CC2OC2C1	C[C@H]1C[C@H]2O[C@H]2C1	
InChI=1S/C6H10O/c1-4-2-5-6(3-4)7-5/h4-6H,2-3H2,1H3	InChI=1S/C6H10O/c1-4-2-5-6(3-4)7-5/h4-6H,2-3H2,1H3/t4-,5+,6-
