15
gdb 1445	8.9112	1.27351	1.12974	1.6873	62.	-0.2577	-0.0145	0.2432	1021.885	0.124828	-341.882531	-341.874536	-341.873592	-341.915713	27.187	
C	-0.2481519555	 1.5609448727	 0.1825538053	-0.370666
C	-0.2001360202	 0.1034949567	-0.2685186768	-0.313443
C	 0.7500777505	-0.1164972318	-1.4386954123	 0.43411
O	 1.3986478246	 0.766820528	-1.9580266237	-0.346303
N	 0.8155307584	-1.4322412903	-1.8712921742	-0.308894
C	 1.6116672905	-1.864403635	-2.9191342521	 0.099109
N	 1.6158203582	-3.089525392	-3.2556031181	-0.464957
H	 0.7409648039	 1.904806224	 0.4938944133	 0.136381
H	-0.5771120326	 2.2099084188	-0.6323895279	 0.136368
H	-0.9384095854	 1.6785766429	 1.0222076529	 0.112069
H	 0.1127562833	-0.5525261787	 0.554718984	 0.127505
H	-1.196786923	-0.248691484	-0.566273478	 0.127536
H	 0.2607122706	-2.1428613425	-1.414926412	 0.259521
H	 2.1815105785	-1.0464636723	-3.3638946043	 0.139258
H	 2.2506776981	-3.2374676664	-4.037884566	 0.232406
29.5622	113.8235	160.0261	184.1881	207.0229	293.4643	399.4986	505.4216	559.3356	655.301	679.1605	814.4049	832.5337	933.7943	1020.4449	1049.9967	1088.1928	1101.3012	1118.2026	1177.8473	1283.9285	1302.9319	1365.1902	1394.562	1416.1165	1461.5355	1491.1973	1492.0311	1500.1997	1728.1159	1804.0535	3021.3523	3052.1765	3055.3933	3125.335	3127.4965	3133.9012	3506.8719	3607.3406
CCC(=O)NC=N	CCC(=O)NC=N	
InChI=1S/C4H8N2O/c1-2-4(7)6-3-5/h3H,2H2,1H3,(H2,5,6,7)	InChI=1S/C4H8N2O/c1-2-4(7)6-3-5/h3H,2H2,1H3,(H2,5,6,7)
