15
gdb 2272	7.62783	1.54038	1.36784	2.155	62.91	-0.2445	0.0503	0.2948	875.2963	0.124041	-308.462923	-308.455681	-308.454737	-308.494682	25.776	
C	-0.0267961137	-1.192372907	 0.1530254637	-0.438418
C	-0.0258085353	 0.0076565229	 0.0928914759	 0.30267
C	-0.0028107427	 1.4619242116	 0.0047216587	-0.364314
C	 1.4069630459	 2.0312662422	-0.1710311297	 0.16996
C	 1.5600728092	 3.5670321593	-0.1105494988	-0.301483
C	 2.5304828718	 3.27505781	 1.0509942329	-0.057354
O	 2.2265808175	 1.8649283337	 1.0060742218	-0.283665
H	-0.0303086081	-2.2521037485	 0.2163638423	 0.195556
H	-0.6140827051	 1.7937384182	-0.8460508087	 0.128626
H	-0.4466361992	 1.9017322308	 0.9065940944	 0.130476
H	 1.8820316984	 1.5669975512	-1.0455169186	 0.085199
H	 1.9849750433	 4.0455866892	-0.9936572751	 0.112695
H	 0.6481960758	 4.0934027988	 0.1810006522	 0.11042
H	 3.5874456679	 3.4711608538	 0.8303784545	 0.103213
H	 2.2839995043	 3.7173331139	 2.0229452943	 0.106422
71.8992	91.1425	140.7085	312.01	344.7124	390.9254	506.1476	617.6594	638.8972	736.2826	812.6698	868.711	888.0535	955.1911	969.8113	1015.9797	1039.9212	1096.6288	1123.6998	1166.4486	1210.9866	1232.2093	1256.8237	1287.5406	1315.1125	1369.9734	1393.158	1454.7394	1489.256	1532.7824	2241.5874	3010.7443	3014.5042	3018.716	3057.1995	3058.973	3074.844	3133.0466	3507.9064
C#CCC1CCO1	C#CC[C@H]1CCO1	
InChI=1S/C6H8O/c1-2-3-6-4-5-7-6/h1,6H,3-5H2	InChI=1S/C6H8O/c1-2-3-6-4-5-7-6/h1,6H,3-5H2/t6-/m0/s1
