16
gdb 549	19.04993	1.28796	1.24432	0.0023	54.79	-0.2512	0.0848	0.336	963.7244	0.141011	-308.741915	-308.733932	-308.732988	-308.774251	25.869	
C	 0.509077612	 1.562092256	-0.0922741353	-0.224547
O	 0.5390497907	 0.1722816071	 0.1229657819	-0.232683
C	-0.0576063199	-0.5570707131	-0.924162528	-0.066637
C	 0.0399206132	-2.0335724353	-0.5728982641	-0.066638
O	-0.557755434	-2.7628641993	-1.6194884462	-0.232685
C	-0.5263693997	-4.1527626176	-1.4050104139	-0.224546
H	 1.0513316863	 1.8458237309	-1.0083526161	 0.104259
H	-0.5220755898	 1.9410620072	-0.1750627369	 0.104269
H	 0.9919430706	 2.0374014577	 0.7650795662	 0.126262
H	-1.1155111491	-0.2762128595	-1.0543871393	 0.09455
H	 0.4526409205	-0.3691697775	-1.8829635016	 0.094528
H	 1.0976819035	-2.3151677782	-0.443281131	 0.094528
H	-0.469836251	-2.2207537112	 0.3863278842	 0.09455
H	-1.0695125171	-4.4378154389	-0.4898655986	 0.104269
H	-1.0073463894	-4.6281820792	-2.2633643154	 0.126262
H	 0.505176973	-4.5303874092	-1.3210278957	 0.104259
71.3062	103.3161	125.5962	146.0891	231.0606	244.1127	332.8992	396.7566	505.5085	835.7587	971.5656	1022.6205	1080.3672	1157.4138	1171.1783	1171.8321	1181.019	1199.0384	1224.2893	1235.8257	1244.7356	1292.458	1366.7981	1443.8197	1480.8455	1485.8372	1485.9225	1486.4417	1504.0953	1505.8312	1530.0892	1537.6725	2960.6765	2963.0249	2973.711	2975.5301	2986.0021	3011.5762	3012.6986	3014.5805	3113.3338	3113.4598
COCCOC	COCCOC	
InChI=1S/C4H10O2/c1-5-3-4-6-2/h3-4H2,1-2H3	InChI=1S/C4H10O2/c1-5-3-4-6-2/h3-4H2,1-2H3
