13
gdb 4396	3.98662	2.06377	1.37136	2.5544	63.81	-0.2565	-0.0727	0.1839	844.4523	0.096582	-394.822731	-394.815855	-394.814911	-394.854306	24.47	
C	-0.0083356916	 1.4605914716	 0.0853059054	-0.472567
C	-0.019156091	-0.0242952904	-0.0491661585	 0.438864
N	-0.1480439193	-0.620567066	-1.1854764403	-0.322708
C	-0.1369985278	-2.0018256399	-1.1049455011	 0.069424
N	-0.0116544645	-2.7226296156	-0.0437000053	-0.286977
C	 0.1297398574	-2.0579543339	 1.1658832682	 0.429739
N	 0.2692919155	-2.5589512755	 2.3138590712	-0.51591
O	 0.1170340535	-0.6487105937	 1.1261754662	-0.205915
H	 0.9294508047	 1.7851155672	 0.5470072779	 0.163955
H	-0.1222355718	 1.9184346182	-0.8958052332	 0.161008
H	-0.8197540479	 1.7795459983	 0.7470584313	 0.163964
H	-0.2476962167	-2.5172240185	-2.0570127318	 0.13632
H	 0.2628729894	-3.5738244018	 2.2232501402	 0.240805
85.2718	110.0483	176.9797	310.1379	406.8297	490.2461	561.7356	580.2123	634.0141	776.2196	783.1466	875.5489	884.0114	962.4119	1012.2225	1016.8775	1043.225	1069.2742	1205.8667	1249.8077	1338.3484	1410.2684	1422.72	1462.0936	1471.5149	1595.4977	1678.9746	1757.4433	3053.5462	3113.1095	3160.8833	3176.8296	3519.0767
CC1=NC=NC(=N)O1	C[C@@H]1N=CN=C([NH])O1	
InChI=1S/C4H5N3O/c1-3-6-2-7-4(5)8-3/h2,5H,1H3	InChI=1S/C4H6N3O/c1-3-6-2-7-4(5)8-3/h2-3,5H,1H3/t3-/m1/s1
