9
gdb 3839	5.73328	3.23881	2.20099	3.0301	49.5	-0.2588	-0.092	0.1668	534.7751	0.056288	-367.635675	-367.630625	-367.629681	-367.664512	18.324	
N	-0.0774345284	 1.1938116056	-0.2524265251	-0.446683
C	-0.0194261143	-0.0059084911	 0.1386048894	 0.429892
N	 1.1842596639	-0.6934661344	 0.4576122418	-0.186339
N	 1.2175848487	-1.9178004147	 0.1814075006	-0.020953
N	 0.061606341	-2.4548078324	-0.321199312	-0.162149
N	-1.1613340406	-1.9699082718	 0.0933678798	-0.017942
N	-1.21248671	-0.7462658445	 0.3538142272	-0.142487
H	 0.8699763674	 1.5742653062	-0.3232272072	 0.246836
H	 0.0849840223	-3.466493803	-0.3535307846	 0.299825
148.2945	386.0974	448.9271	532.1891	605.0683	666.8459	678.2532	784.9651	838.9947	877.2405	940.5703	979.9349	1059.0372	1122.5386	1294.2424	1375.6882	1567.2719	1601.2953	1747.1252	3458.9109	3594.1564
N=C1N=NNN=N1	[NH][C]1N=NNN=N1	
InChI=1S/CH2N6/c2-1-3-5-7-6-4-1/h(H2,2,3,4,7)	InChI=1S/CH2N6/c2-1-3-5-7-6-4-1/h(H2,2,3,4,7)
