14
gdb 4865	6.88441	1.31672	1.11306	1.391	59.84	-0.1829	0.0635	0.2464	1009.5839	0.107715	-415.883401	-415.875632	-415.874688	-415.915489	27.743	
C	-0.0025931331	 1.3792036428	 0.0777994748	-0.233983
O	-0.0090946267	-0.0477488217	 0.0340558788	-0.273247
C	-1.2323001654	-0.5929740837	-0.0250816595	 0.489762
N	-2.3863925792	 0.0024515243	-0.0464104684	-0.359901
C	-3.3264274247	-1.0319118824	-0.1109496743	-0.244801
C	-2.6865740257	-2.2334769246	-0.126177731	 0.36431
O	-3.062488503	-3.5354554898	-0.1794731118	-0.43748
N	-1.333098484	-1.9576687531	-0.0708954504	-0.390107
H	 1.0474312314	 1.6702734006	 0.1217468735	 0.127575
H	-0.4789774564	 1.7962673183	-0.8145166421	 0.138761
H	-0.5381510242	 1.7421498074	 0.9601799145	 0.138694
H	-4.3856310446	-0.8318035849	-0.1414945431	 0.097681
H	-4.0233552998	-3.5704434545	-0.2134285427	 0.309659
H	-0.5823533147	-2.6266909288	-0.0655657982	 0.273077
89.7411	145.0156	214.2166	216.5295	241.019	365.121	380.5277	423.2187	519.4961	647.5886	672.7767	719.3141	734.5188	746.2719	982.5682	1050.9715	1075.7509	1148.7141	1167.8885	1184.5086	1225.9438	1261.8563	1280.5386	1457.1203	1475.4196	1479.0947	1499.4031	1514.9159	1637.0533	1648.6762	3039.9663	3109.4095	3150.123	3253.8586	3676.3697	3845.7871
COC1=NC=C(O)N1	COc1ncc(O)[nH]1	
InChI=1S/C4H6N2O2/c1-8-4-5-2-3(7)6-4/h2,7H,1H3,(H,5,6)	InChI=1S/C4H6N2O2/c1-8-4-5-2-3(7)6-4/h2,7H,1H3,(H,5,6)
