19
gdb 1753	5.05097	1.5881	1.42318	0.93	68.53	-0.2509	0.0847	0.3357	942.7317	0.170126	-310.899323	-310.890945	-310.890001	-310.931903	30.222	
C	-0.0924218717	 1.3752126244	-0.1012649822	-0.222216
O	-0.195670583	-0.0240747402	-0.186638019	-0.23468
C	 0.7913282036	-0.5989807347	-1.0208045761	-0.118324
C	 0.6540310574	-2.1023113518	-0.9887563087	 0.366302
C	 0.8704299996	-2.7290730118	 0.3746446169	-0.460587
C	-0.3588047522	-2.722809844	-1.919652074	-0.285895
C	 1.116341443	-2.8510632496	-2.2160518847	-0.314279
H	 0.881036894	 1.691270301	 0.3076977527	 0.101175
H	-0.2197575078	 1.8572168933	-1.0843446769	 0.100418
H	-0.884818984	 1.7238034128	 0.5658646725	 0.125203
H	 0.6822297468	-0.2261158401	-2.0538820894	 0.076437
H	 1.7968548855	-0.300485525	-0.672903246	 0.080305
H	 0.1665593373	-2.3167141203	 1.103264967	 0.133202
H	 0.7301071249	-3.8137445584	 0.3373930675	 0.107672
H	 1.8859867443	-2.5359108893	 0.7414234786	 0.108668
H	-0.8900928095	-3.6041423772	-1.5768415372	 0.109097
H	-0.9514737065	-2.0631941964	-2.5443672467	 0.111287
H	 1.5226681084	-2.2849284114	-3.0481807119	 0.107132
H	 1.58785622	-3.8169611212	-2.0685024525	 0.109084
82.4887	99.2844	173.1298	215.4679	234.0511	306.1826	331.6537	363.7893	408.4243	486.6035	742.4345	784.8968	872.8246	910.3001	953.886	958.5886	989.1518	1019.7068	1048.7613	1076.491	1087.1663	1127.5222	1157.5236	1184.391	1187.1658	1226.2544	1252.8695	1331.1112	1361.3305	1410.2565	1428.4028	1470.346	1480.2368	1485.6293	1486.2579	1499.8517	1506.3403	1513.2194	1523.9321	2936.137	2964.6072	2968.8485	3005.249	3026.1351	3089.7873	3110.7244	3112.949	3126.3391	3133.6399	3204.4439	3220.0436
COCC1(C)CC1	COCC1(C)CC1	
InChI=1S/C6H12O/c1-6(3-4-6)5-7-2/h3-5H2,1-2H3	InChI=1S/C6H12O/c1-6(3-4-6)5-7-2/h3-5H2,1-2H3
