12
gdb 3806	7.96097	2.20492	1.7457	3.0194	51.28	-0.2347	0.0127	0.2474	676.8123	0.092518	-356.710448	-356.704409	-356.703465	-356.740408	21.229	
C	 0.0069557442	 1.3783789917	-0.0280256716	-0.232809
O	 0.0215545937	-0.0478684402	-0.0333539069	-0.243657
C	 0.6201730772	-0.612809571	-1.0807425726	 0.454262
N	 1.1780929732	 0.0642775454	-2.0755224481	-0.319471
N	 1.6327990084	-0.9536065322	-2.8626849979	-0.19676
C	 1.3299286526	-2.1408695129	-2.3101670672	 0.032703
N	 0.6841899211	-1.9696241158	-1.1732731271	-0.327452
H	 1.0256387041	 1.7793580222	-0.0280049121	 0.134934
H	-0.5222353896	 1.7668010535	-0.9041553764	 0.134909
H	-0.5127680583	 1.6671344839	 0.8859572596	 0.133412
H	 2.1164288987	-0.7448870587	-3.7194970667	 0.281008
H	 1.5921065649	-3.087569366	-2.758552343	 0.148921
117.5488	177.062	251.9578	352.3337	468.5113	520.2905	666.7884	717.5026	777.1818	860.0652	989.8905	995.0629	1089.6932	1104.6065	1176.3431	1182.1885	1225.687	1303.5782	1364.762	1451.1435	1478.8619	1480.6681	1500.5275	1540.1788	1597.4429	3034.5484	3101.7542	3150.2406	3257.3831	3676.7484
COC1=NNC=N1	COc1n[nH]cn1	
InChI=1S/C3H5N3O/c1-7-3-4-2-5-6-3/h2H,1H3,(H,4,5,6)	InChI=1S/C3H5N3O/c1-7-3-4-2-5-6-3/h2H,1H3,(H,4,5,6)
