17
gdb 4783	6.60103	1.23754	1.07047	1.4289	73.34	-0.1751	0.046	0.2211	1121.5928	0.142296	-363.889257	-363.880918	-363.879974	-363.922291	30.072	
C	-0.1326188927	 1.4458378026	 0.1833712897	-0.328613
N	-0.0352409584	 0.0619678425	-0.2709389085	-0.384763
C	-1.1395960896	-0.7603778404	-0.1426313858	 0.445692
C	-1.2844211739	-2.1029488475	 0.0579308135	-0.414117
C	-2.7003305911	-2.3672099251	-0.0130979296	 0.284794
C	-3.3756337339	-3.6937179403	 0.141625361	-0.499532
C	-3.2920649618	-1.1688506634	-0.2380205527	-0.133635
O	-2.3445683564	-0.1703907107	-0.321438377	-0.184332
H	 0.809395137	 1.9522896917	-0.0391807354	 0.123204
H	-0.9295002954	 1.9517796206	-0.3647269121	 0.151492
H	-0.342255555	 1.5433355366	 1.2594621902	 0.113947
H	 0.8056841211	-0.4029960859	 0.0389355033	 0.241917
H	-0.4951097391	-2.8169323312	 0.2343881048	 0.088071
H	-3.1602061229	-4.142386738	 1.1184347478	 0.125382
H	-4.4612855968	-3.5983060497	 0.0505884135	 0.121442
H	-3.0378983474	-4.4070200047	-0.619203094	 0.126606
H	-4.3139103935	-0.848301457	-0.3481608788	 0.122444
54.6895	135.7477	143.5318	189.4194	226.845	296.5124	360.9446	460.4553	550.0813	616.5341	648.3908	667.9746	706.0773	735.9994	756.1217	953.2738	986.1891	1016.8902	1059.5803	1063.8169	1124.17	1151.2146	1156.8292	1199.6234	1254.9568	1335.9788	1406.1867	1421.3966	1449.0427	1481.6832	1483.0964	1489.6927	1502.7683	1516.4795	1627.1406	1665.2723	2988.2158	3025.778	3074.6211	3095.1147	3108.19	3138.4354	3248.8918	3283.9881	3603.0108
CNC1=CC(C)=CO1	CNc1cc(C)co1	
InChI=1S/C6H9NO/c1-5-3-6(7-2)8-4-5/h3-4,7H,1-2H3	InChI=1S/C6H9NO/c1-5-3-6(7-2)8-4-5/h3-4,7H,1-2H3
