13
gdb 4419	3.78204	2.01841	1.31605	3.0597	66.92	-0.1999	-0.0412	0.1587	852.7141	0.098025	-394.814053	-394.80759	-394.806646	-394.844522	25.079	
O	-0.1425667554	 1.3218350436	 0.01094641	-0.410991
C	 0.0442392148	-0.0118801786	 0.0026620149	 0.459315
C	 1.2395789933	-0.6734355759	-0.0076706344	-0.205846
N	 1.2720345386	-2.0420214125	-0.0152805483	-0.209157
C	 0.1635792428	-2.7112573863	-0.0126602988	-0.079149
C	-1.1720895093	-2.1127430247	-0.0018767748	 0.338688
N	-2.3263907503	-2.6706574126	 0.0016402926	-0.559759
N	-1.1150913196	-0.7124489755	 0.005391199	-0.354857
H	 0.7160910514	 1.7594854764	 0.0085693855	 0.31901
H	 2.1831059306	-0.1411900455	-0.0101071538	 0.100006
H	 0.2162522854	-3.7981438806	-0.0188516133	 0.112314
H	-2.223904412	-3.6839149911	-0.0044215387	 0.216454
H	-1.9967816203	-0.2172630567	 0.01307837	 0.273972
147.2907	218.9026	336.971	374.3338	454.1873	482.0556	548.6385	558.853	628.0867	686.368	727.848	736.3722	769.936	793.699	903.4277	963.373	1047.3759	1113.3073	1165.9129	1207.1026	1298.6952	1347.2686	1361.7864	1407.4598	1544.3936	1583.708	1649.2404	1699.5905	3147.9513	3192.7509	3502.4607	3604.2499	3824.2183
OC1=CN=CC(=N)N1	Oc1cncc([NH])[nH]1	
InChI=1S/C4H5N3O/c5-3-1-6-2-4(8)7-3/h1-2H,(H3,5,7,8)	InChI=1S/C4H10N3O/c5-3-1-6-2-4(8)7-3/h3-8H,1-2H2
