12
gdb 354	9.85085	2.21586	1.83111	3.7361	49.61	-0.2388	-0.0681	0.1707	643.2539	0.095538	-302.558547	-302.551612	-302.550668	-302.589229	22.92	
C	 0.0144900456	 1.4437732395	-0.009882978	-0.314183
N	-0.0705632209	-0.0013467273	 0.0621653419	-0.308703
C	-1.2816918677	-0.6331326767	 0.0427928029	 0.28474
N	-2.3954738677	-0.0060994293	 0.0893559388	-0.512393
C	-1.1844741132	-2.142792689	 0.0002430344	 0.110775
O	-2.1512792199	-2.8570913014	-0.003855938	-0.234359
H	 1.0527264669	 1.7500036541	 0.13282396	 0.122512
H	-0.3508769917	 1.8322788495	-0.9694962766	 0.135087
H	-0.6040472963	 1.8818908192	 0.7773523288	 0.159142
H	 0.7372582131	-0.5345764415	-0.213765143	 0.245943
H	-3.148616429	-0.6962251947	 0.1137701207	 0.234328
H	-0.1527176491	-2.5639268423	-0.027417472	 0.077113
106.3305	116.1917	199.8294	215.5269	305.6447	348.5209	467.7096	576.8538	716.5747	869.7301	915.6507	1024.1263	1032.4169	1151.8942	1183.5049	1185.6832	1327.9113	1430.4576	1453.4136	1474.7046	1508.7255	1555.8562	1702.7811	1835.2288	2864.0959	3020.7905	3095.1596	3138.2223	3468.167	3644.5527
CNC(=N)C=O	CNC(=N)C=O	
InChI=1S/C3H6N2O/c1-5-3(4)2-6/h2H,1H3,(H2,4,5)	InChI=1S/C3H6N2O/c1-5-3(4)2-6/h2H,1H3,(H2,4,5)
