12
gdb 555	8.19482	2.68797	2.48393	3.0536	50.2	-0.2526	0.0144	0.267	538.446	0.098381	-265.398572	-265.392993	-265.392048	-265.427692	19.583	
N	 0.0384093067	-1.2045941651	-0.0301835589	-0.322733
C	 0.008996904	-0.0488320994	 0.0071758554	 0.259464
C	 0.0155005233	 1.4176259582	 0.0410961162	-0.098973
C	-0.2027329775	 2.0107855623	 1.4683073694	-0.229857
C	 1.3319102135	 2.2125427907	 1.5077228367	-0.15406
N	 1.3638200146	 2.0348889027	 0.0331562737	-0.300799
H	-0.6450877129	 1.7859549026	-0.7507659475	 0.124048
H	-0.7597817905	 2.947148983	 1.4271187757	 0.12798
H	-0.6442107175	 1.3479941443	 2.2106690153	 0.131051
H	 1.7034084396	 3.1842656773	 1.8448047818	 0.115068
H	 1.8411895582	 1.4206725786	 2.0716277745	 0.113317
H	 2.1070203984	 1.4497218447	-0.3328884024	 0.235493
116.7935	193.8334	262.4489	505.6472	566.757	691.8412	747.9003	825.4241	915.941	940.5401	985.8571	1028.1537	1068.2105	1101.8552	1164.4417	1206.2604	1230.533	1269.1309	1317.6344	1342.0021	1397.5012	1482.9304	1523.8275	2343.8371	3021.3296	3051.8497	3082.8875	3100.1143	3162.7938	3536.1335
N#CC1CCN1	N#C[C@H]1CCN1	
InChI=1S/C4H6N2/c5-3-4-1-2-6-4/h4,6H,1-2H2	InChI=1S/C4H6N2/c5-3-4-1-2-6-4/h4,6H,1-2H2/t4-/m1/s1
