14
gdb 4065	8.3081	1.02394	0.92632	3.6192	64.67	-0.2514	-0.0197	0.2317	1156.6126	0.106128	-415.814778	-415.806955	-415.806011	-415.847817	27.158	
O	-0.1560455833	 1.3352401012	 0.2730585395	-0.388712
N	 0.0196554994	-0.0530203257	 0.192433468	-0.207877
C	-1.066987906	-0.6298644512	-0.0860647938	 0.393704
C	-2.5054530895	-0.2082056786	-0.3484541708	-0.27048
N	-2.7944337131	-1.6462601714	-0.4960024097	-0.059078
C	-1.4084754896	-2.0964136695	-0.280369516	-0.255116
C	-3.8198659722	-2.3203631722	-1.0659076907	 0.139119
O	-3.7980636837	-3.5052069031	-1.3246297684	-0.324533
H	 0.7309019401	 1.6446246431	 0.4880549995	 0.314555
H	-3.0091978936	 0.2816401968	 0.4925849859	 0.144242
H	-2.6527873785	 0.3907371581	-1.2551219045	 0.143931
H	-0.9622482811	-2.5818696152	-1.1554971081	 0.148787
H	-1.2753951074	-2.7425439508	 0.5935971336	 0.146549
H	-4.6932069214	-1.6635975613	-1.2561550346	 0.074909
36.7237	141.8529	151.0357	232.4686	273.8259	328.7808	377.8061	485.2653	495.9424	566.4671	750.3301	817.3442	909.0853	955.9175	991.161	1033.0614	1064.0985	1108.636	1135.1625	1153.1033	1186.195	1269.9434	1297.2866	1387.6766	1417.8826	1446.2782	1485.6376	1505.378	1793.6992	1819.61	2928.1089	3027.1808	3041.7262	3071.5332	3084.0653	3814.6833
ON=C1CN(C1)C=O	ON=C1CN(C1)C=O	
InChI=1S/C4H6N2O2/c7-3-6-1-4(2-6)5-8/h3,8H,1-2H2	InChI=1S/C4H6N2O2/c7-3-6-1-4(2-6)5-8/h3,8H,1-2H2
