13
gdb 2891	4.98972	2.29076	2.09826	1.533	54.26	-0.2621	0.0338	0.2959	659.2034	0.101605	-344.407598	-344.400944	-344.4	-344.439551	23.066	
C	 0.2730051174	-1.0873210546	 0.0855410922	-0.452583
C	 0.0809106994	 0.0982812987	 0.049741099	 0.341704
C	-0.1546440645	 1.5557288624	 0.0041821615	-0.014939
O	-0.7487176591	 2.0266518185	 1.1923651527	-0.230221
C	 0.3269057734	 2.2792216796	 2.0953294629	-0.105736
C	 1.5644603706	 2.4505505676	 1.1756160277	-0.105731
O	 1.0482451972	 2.2753484531	-0.1430693241	-0.230229
H	 0.4368816409	-2.136820157	 0.1112175089	 0.202457
H	-0.8116027684	 1.81296673	-0.8319106591	 0.123915
H	 0.0799659086	 3.1792675853	 2.6632100349	 0.12177
H	 0.4572678753	 1.441190582	 2.7902788782	 0.113908
H	 2.010298878	 3.4465293159	 1.2285747621	 0.121771
H	 2.333898961	 1.7010300183	 1.3956837732	 0.113915
22.0621	116.5205	191.855	287.6136	524.2053	550.8925	666.8511	667.4556	735.0726	794.2519	845.3153	932.8156	940.5798	962.9488	1001.6537	1055.9847	1124.6457	1161.6399	1235.8993	1237.4595	1306.4393	1361.887	1372.6528	1383.1788	1515.0326	1528.7638	2232.026	3027.6541	3039.0726	3076.8939	3090.7584	3110.2344	3499.1014
C#CC1OCCO1	C#CC1OCCO1	
InChI=1S/C5H6O2/c1-2-5-6-3-4-7-5/h1,5H,3-4H2	InChI=1S/C5H6O2/c1-2-5-6-3-4-7-5/h1,5H,3-4H2
