19
gdb 1298	5.02395	1.27143	1.24031	2.2405	64.82	-0.2572	0.0792	0.3364	1070.8534	0.169559	-348.053064	-348.044051	-348.043107	-348.086845	31.636	
C	-0.1150489176	 1.5049659002	-0.1344801829	-0.386486
C	-0.0543317417	-0.0116256427	-0.0717538767	-0.026251
O	-1.3731781903	-0.5141383752	 0.0217780984	-0.259353
C	-1.4493394708	-1.9267857998	 0.0739286782	-0.075999
C	-2.9325196015	-2.2974788325	 0.0315651898	 0.1338
C	-3.6858222605	-1.8401596894	 1.2841432725	-0.391128
O	-3.5189413511	-1.7709684348	-1.1507411081	-0.440085
H	 0.8932738659	 1.9235127658	-0.204277823	 0.118126
H	-0.6865717772	 1.8317091101	-1.008064408	 0.125643
H	-0.5969600326	 1.9073481728	 0.7610210142	 0.128184
H	 0.44193683	-0.4193643616	-0.9680443897	 0.09058
H	 0.5351829655	-0.3399335281	 0.8002416395	 0.089544
H	-0.9337511316	-2.3662316224	-0.7945257733	 0.092505
H	-0.969699625	-2.3118482169	 0.9887215911	 0.085775
H	-3.0046083619	-3.3882800383	-0.057743568	 0.081818
H	-3.565175874	-0.7627067408	 1.428984404	 0.123857
H	-4.7504539879	-2.0625011479	 1.1775171174	 0.121105
H	-3.3112410739	-2.3495655236	 2.1789114917	 0.105126
H	-3.2216039639	-0.853804605	-1.1991492271	 0.283239
66.0115	77.226	137.0895	157.8424	238.5929	248.8489	291.6401	374.8492	413.5233	420.9937	456.6101	634.8473	820.6779	827.7696	896.1952	934.0685	964.7944	1008.4698	1065.7558	1114.8647	1139.0706	1161.4929	1169.051	1192.5256	1262.5421	1297.0988	1304.5931	1369.5021	1379.3659	1399.6246	1406.6541	1432.9	1444.4061	1483.841	1489.4319	1498.8389	1500.5654	1506.385	1534.3983	2958.3241	2970.2413	2988.0588	3004.546	3037.5518	3041.6097	3045.1107	3109.1726	3119.5328	3121.9581	3127.8631	3780.8116
CCOCC(C)O	CCOC[C@@H](C)O	
InChI=1S/C5H12O2/c1-3-7-4-5(2)6/h5-6H,3-4H2,1-2H3	InChI=1S/C5H12O2/c1-3-7-4-5(2)6/h5-6H,3-4H2,1-2H3/t5-/m1/s1
