13
gdb 4653	6.61201	1.34839	1.12244	4.0859	70.6	-0.1969	0.0108	0.2077	989.2742	0.0968	-357.651701	-357.644464	-357.643519	-357.682795	27.472	
N	 0.0034212967	 1.3657329521	 0.2029720176	-0.60738
C	-0.0306779717	-0.0191066307	 0.0701658109	 0.381266
N	-1.1041886683	-0.767229444	 0.0866931464	-0.36416
C	-0.637001292	-2.0791747879	 0.0206839937	 0.154798
C	 0.733689551	-2.0913625491	-0.0481604757	-0.200013
N	 1.1140217618	-0.7631704765	-0.0161959761	-0.27378
C	-1.5022512186	-3.1984366391	 0.0169457859	 0.229119
C	-2.2338962587	-4.1548312151	 0.0129263728	-0.418594
H	 0.5420588322	 1.8320171222	-0.5176481453	 0.249203
H	-0.942528276	 1.7268607486	 0.2117155442	 0.265252
H	 1.446096953	-2.8939941703	-0.1285214096	 0.134786
H	 2.0560084317	-0.4154464459	 0.0430332928	 0.267098
H	-2.8824228212	-4.9949425343	 0.0101816324	 0.182406
146.3585	151.8092	241.662	293.7162	379.4774	450.8506	494.2125	544.5201	554.1873	560.95	658.4425	660.3722	710.9873	739.9837	746.9388	804.6619	995.4924	1014.0624	1105.4975	1146.3659	1252.786	1281.6292	1377.2968	1491.2179	1572.6069	1605.2813	1658.4059	2235.3713	3287.7556	3506.6743	3528.1013	3624.5698	3668.0364
NC1=NC(=CN1)C#C	Nc1nc(c[nH]1)C#C	
InChI=1S/C5H5N3/c1-2-4-3-7-5(6)8-4/h1,3H,(H3,6,7,8)	InChI=1S/C5H5N3/c1-2-4-3-7-5(6)8-4/h1,3H,(H3,6,7,8)
