14
gdb 841	7.32966	1.97888	1.57631	1.5216	60.58	-0.1811	0.045	0.2261	766.5941	0.114088	-324.608363	-324.601467	-324.600523	-324.638872	25.418	
C	-0.0286529009	 1.5194625637	-0.0146079103	-0.50066
C	 0.0090508536	 0.0237615447	 0.0156307536	 0.286147
C	-0.0352985376	-0.8187233353	-1.0446345199	-0.130777
O	 0.0219125473	-2.1302007231	-0.621604563	-0.17874
C	 0.1000193652	-2.0997947874	 0.7278602778	 0.395213
N	 0.2424931644	-3.3381194636	 1.3402491527	-0.59249
C	 0.0954512372	-0.8166449329	 1.186103241	-0.3745
H	 0.8710123502	 1.9525424965	 0.4378507248	 0.127268
H	-0.0990308114	 1.8929776372	-1.0400208882	 0.121923
H	-0.8871703326	 1.9110638994	 0.5434800843	 0.125591
H	-0.1056938348	-0.6778436431	-2.109693904	 0.123282
H	-0.235389084	-4.0748364768	 0.836493653	 0.254069
H	-0.042265808	-3.3274165214	 2.3097897326	 0.254072
H	 0.1464270113	-0.4984045378	 2.2155943155	 0.089603
139.6214	178.2727	190.962	270.8748	347.0005	429.4378	584.4935	616.722	654.7402	666.8335	725.3084	745.4484	770.1775	965.167	985.9391	1016.1774	1063.9009	1090.2824	1143.7476	1194.0496	1261.6227	1331.1962	1418.0361	1451.3014	1481.4542	1499.3414	1607.4368	1639.5731	1675.0666	3025.8581	3074.7563	3108.3419	3251.808	3284.1	3544.3457	3645.599
CC1=COC(N)=C1	Cc1coc(N)c1	
InChI=1S/C5H7NO/c1-4-2-5(6)7-3-4/h2-3H,6H2,1H3	InChI=1S/C5H7NO/c1-4-2-5(6)7-3-4/h2-3H,6H2,1H3
