15
gdb 1767	4.86096	1.91812	1.67381	1.8302	63.98	-0.258	0.0289	0.2868	795.1727	0.121711	-308.471397	-308.463453	-308.462508	-308.503	28.791	
C	-0.0474808994	 1.5418636476	-0.1035895817	-0.42696
C	-0.0203437648	 0.0476200625	 0.0874085958	 0.047956
O	 1.2170291067	-0.6342344278	-0.1208669575	-0.281057
C	 0.6530740296	-0.6587356626	 1.2075445207	 0.184042
C	 1.447503895	 0.0557669296	 2.2817507378	-0.470834
C	 0.1124714219	-1.9384574973	 1.6150927477	 0.297889
C	-0.330433185	-2.9923446479	 1.9869723005	-0.438422
H	 0.8082598319	 2.0355532417	 0.3595475796	 0.129017
H	-0.0335238477	 1.7764563541	-1.1732610929	 0.13513
H	-0.9672506288	 1.9609649988	 0.3180139119	 0.127196
H	-0.8762815926	-0.4745505368	-0.344548439	 0.095932
H	 1.8605047718	 0.9939801368	 1.9095080938	 0.129614
H	 0.8152607919	 0.2613401791	 3.1508450502	 0.132154
H	 2.2766301585	-0.5776244456	 2.6101519947	 0.139876
H	-0.723664709	-3.9267792522	 2.3034785186	 0.198465
142.6563	148.7067	164.5174	167.402	273.4137	319.0902	398.9998	471.2245	528.7417	572.152	620.3654	660.2288	672.0534	772.1586	887.0566	943.4331	991.2768	1056.511	1100.9146	1133.0471	1172.7274	1243.4347	1333.8762	1400.9614	1416.146	1447.899	1473.7425	1484.4339	1493.0131	1510.2004	2236.4881	3041.2765	3050.3925	3090.7419	3101.8527	3115.41	3136.8993	3149.338	3502.0753
CC1OC1(C)C#C	C[C@H]1O[C@]1(C)C#C	
InChI=1S/C6H8O/c1-4-6(3)5(2)7-6/h1,5H,2-3H3	InChI=1S/C6H8O/c1-4-6(3)5(2)7-6/h1,5H,2-3H3/t5-,6-/m1/s1
