11
gdb 917	5.76839	2.94566	1.94992	2.6467	57.	-0.2342	-0.0702	0.164	600.6297	0.080481	-339.450073	-339.444769	-339.443825	-339.47919	19.72	
N	-0.0611707222	 1.2848853596	 0.3179473903	-0.518843
C	-0.0234194538	 0.0703690439	-0.0407464995	 0.361201
O	 1.1665298781	-0.563102661	-0.3785131756	-0.222428
C	 1.1400218277	-1.8654126595	-0.7541741415	 0.0524
C	 0.001720994	-2.5714223493	-0.8129568694	-0.086687
N	-1.2271340836	-2.0046138768	-0.4894732903	-0.223783
C	-1.2210947636	-0.7699167192	-0.130747876	-0.008508
H	 0.8709645974	 1.7009437846	 0.3189013677	 0.229675
H	 2.1273302055	-2.2412641629	-0.990906972	 0.145393
H	 0.0026098224	-3.6102124721	-1.1155093555	 0.126415
H	-2.155625702	-0.2807486273	 0.1321998617	 0.145166
124.866	365.5664	415.7141	495.6138	534.9939	640.4889	731.3299	803.7054	821.5515	866.3277	923.3277	947.2492	962.8862	1016.6095	1061.447	1161.3319	1264.5027	1296.8476	1362.4211	1423.8701	1599.095	1671.5263	1732.2316	3172.0662	3212.3196	3232.7633	3486.341
N=C1OC=CN=C1	[NH]C1=C[N]C=CO1	
InChI=1S/C4H4N2O/c5-4-3-6-1-2-7-4/h1-3,5H	InChI=1S/C4H4N2O/c5-4-3-6-1-2-7-4/h1-3,5H
