10
gdb 3942	7.60135	2.23573	1.7276	3.0981	44.	-0.2178	0.0439	0.2616	638.7664	0.068553	-392.676111	-392.670152	-392.669208	-392.705853	21.422	
O	-0.0513107598	 1.316961253	 0.0103499324	-0.409791
C	 0.0388734538	-0.0155476715	 0.0025694562	 0.499185
N	 1.1281501994	-0.7106290058	-0.00768843	-0.327295
N	 0.6590662013	-2.0233217323	-0.0119277835	-0.305518
C	-0.7095671558	-2.1357892628	-0.0045291507	 0.468239
O	-1.4194941754	-3.1150311405	-0.0056766112	-0.41445
N	-1.0932643881	-0.7767535759	 0.0052184414	-0.402045
H	 0.8503926435	 1.6656354326	 0.00680716	 0.322085
H	 1.3082179375	-2.7887539873	-0.0203346871	 0.282514
H	-2.0455400564	-0.4558164893	 0.0126383825	 0.287076
116.0351	250.7746	356.4047	414.9752	433.061	477.001	538.5878	660.9959	694.4603	760.8005	784.5595	987.8653	1031.5799	1095.6671	1212.5916	1251.833	1304.0393	1386.6602	1579.8119	1694.4045	1866.7012	3693.5782	3710.4632	3788.3279
OC1=NNC(=O)N1	Oc1n[nH]c(=O)[nH]1	
InChI=1S/C2H3N3O2/c6-1-3-2(7)5-4-1/h(H3,3,4,5,6,7)	InChI=1S/C2H3N3O2/c6-1-3-2(7)5-4-1/h(H3,3,4,5,6,7)
