13
gdb 4657	6.96612	1.27074	1.0747	2.1659	69.95	-0.1897	0.018	0.2077	1014.601	0.095435	-361.46573	-361.458352	-361.457408	-361.496947	28.068	
O	 0.100687631	 1.3348518503	 0.1896001093	-0.437326
C	 0.0716030635	-0.0069677285	-0.0007231276	 0.415068
C	 0.0929259811	-0.8068848777	-1.1122859105	-0.439283
C	 0.0378886283	-2.1671757424	-0.6375113215	 0.178725
C	-0.0137539424	-2.120121773	 0.7405630256	-0.205934
N	 0.0073984014	-0.7957382668	 1.1143327767	-0.290706
C	 0.0371016321	-3.3340473306	-1.4356556651	 0.244248
C	 0.0373956781	-4.3173111317	-2.1326300239	-0.453337
H	 0.1424490482	 1.7634437185	-0.6705139175	 0.310353
H	 0.1411420035	-0.4913270474	-2.1419925899	 0.099232
H	-0.0630362948	-2.9116888702	 1.4682936835	 0.128297
H	-0.0190293214	-0.4403867415	 2.0542874359	 0.27116
H	 0.0373280213	-5.187296609	-2.7404882752	 0.179503
140.8195	149.8273	233.0359	295.2681	393.6902	432.269	492.9474	525.5001	527.7779	551.4818	640.1239	646.2181	671.5685	691.5476	728.3466	764.1977	981.0454	1011.2667	1124.7404	1159.9128	1184.8374	1276.2804	1325.5364	1413.7	1517.9216	1561.2332	1637.7619	2228.7099	3259.7334	3284.7372	3505.6686	3684.0732	3849.4104
OC1=CC(=CN1)C#C	Oc1cc(c[nH]1)C#C	
InChI=1S/C6H5NO/c1-2-5-3-6(8)7-4-5/h1,3-4,7-8H	InChI=1S/C6H5NO/c1-2-5-3-6(8)7-4-5/h1,3-4,7-8H
