11
gdb 1007	9.56141	1.96898	1.63275	3.156	62.39	-0.2202	-0.0122	0.208	695.7367	0.080209	-302.306196	-302.300429	-302.299484	-302.335569	21.461	
C	 0.0840463671	-1.1987956815	-0.0050078175	-0.449103
C	 0.0070598908	 0.0038294981	 0.0027685605	 0.265416
C	-0.0758135885	 1.4076038425	 0.0117542433	 0.174257
C	-1.1452818906	 2.2827044317	 0.030744248	-0.179073
N	-0.7163683661	 3.5811812915	 0.0324035334	-0.240515
C	 0.5982818894	 3.5152244912	 0.0147413064	 0.013557
N	 1.0402936871	 2.2311661929	 0.0017251397	-0.312343
H	 0.1414126768	-2.2589381254	-0.0117251781	 0.195621
H	-2.1933400627	 2.027009659	 0.0430894764	 0.12089
H	 1.2743609689	 4.3571213049	 0.0105846329	 0.136875
H	 1.9954624779	 1.9139176349	-0.012615215	 0.274418
165.5113	169.2973	452.7753	521.8851	523.5748	548.1772	589.9984	675.5354	678.0734	683.5712	820.1847	866.5952	931.2393	1017.2883	1117.289	1157.6174	1249.4516	1283.4411	1360.1119	1421.5579	1479.4576	1583.4929	2229.9598	3253.925	3260.4397	3502.9057	3664.4596
C#CC1=CN=CN1	C#Cc1cnc[nH]1	
InChI=1S/C5H4N2/c1-2-5-3-6-4-7-5/h1,3-4H,(H,6,7)	InChI=1S/C5H4N2/c1-2-5-3-6-4-7-5/h1,3-4H,(H,6,7)
