13
gdb 1258	9.24692	1.27872	1.13133	1.7184	55.46	-0.2585	0.0074	0.2659	996.0035	0.100338	-377.816587	-377.80863	-377.807686	-377.849065	26.581	
C	 0.0413473393	 1.3855453517	-0.0697680559	-0.317616
N	 0.0044820764	-0.0519053935	-0.2575854201	-0.201248
C	-1.0770148981	-0.6318422207	-0.0010638455	 0.124131
O	-1.1469578864	-1.9908476759	-0.1692611361	-0.236173
C	-2.3490556529	-2.5982148633	 0.1314912112	 0.518363
N	-2.2354319984	-3.9238920237	-0.1216335419	-0.56325
O	-3.3311125669	-2.0289203726	 0.5363917603	-0.383252
H	 0.8293791073	 1.6362542513	 0.6487652712	 0.132424
H	 0.3089330924	 1.8670773163	-1.0166896322	 0.132669
H	-0.9069712848	 1.8168620332	 0.2863010518	 0.105525
H	-2.0109470359	-0.1888750704	 0.3521472458	 0.134376
H	-1.344267702	-4.3218993317	-0.3597265264	 0.276986
H	-2.9984145401	-4.5206929606	 0.1427226478	 0.277065
87.0216	101.3284	160.3209	165.3723	214.2676	325.7781	354.8391	411.0166	546.7068	583.1532	666.4188	775.7145	949.3126	993.9357	1058.2287	1111.6336	1142.513	1149.3783	1207.3081	1338.1537	1379.3967	1449.3515	1481.6947	1502.3059	1606.8765	1782.9299	1857.222	2982.3863	3067.8335	3085.6286	3111.5052	3628.3112	3765.5409
CN=COC(N)=O	CN=COC(=O)N	
InChI=1S/C3H6N2O2/c1-5-2-7-3(4)6/h2H,1H3,(H2,4,6)	InChI=1S/C3H6N2O2/c1-5-2-7-3(4)6/h2H,1H3,(H2,4,6)
