18
gdb 275	7.1604	1.71893	1.49915	1.3758	60.39	-0.2613	0.0739	0.3352	858.1408	0.164563	-272.84456	-272.836468	-272.835524	-272.876391	28.823	
C	 0.0218629765	 1.5685773647	-0.0091476343	-0.382094
C	 0.0012086018	 0.0381474926	-0.0033581998	-0.159141
C	-1.4140700403	-0.5455928383	 0.0456063845	-0.170542
C	-1.4485755331	-2.0779543315	-0.0219729936	 0.138447
C	-2.8662223512	-2.6365633289	 0.1059297296	-0.401396
O	-0.8108875285	-2.5651501715	-1.2032032841	-0.428268
H	 1.0460083204	 1.9536177266	-0.0401618858	 0.111403
H	-0.5096724544	 1.9695651611	-0.8797875589	 0.110293
H	-0.4600769849	 1.9778204454	 0.8861323974	 0.110659
H	 0.5092516473	-0.3506801677	-0.8921876993	 0.108657
H	 0.5714469842	-0.3336242746	 0.8584281757	 0.092239
H	-1.922797064	-0.2179365389	 0.9624149009	 0.090719
H	-2.0096727869	-0.1448653631	-0.7898071421	 0.078362
H	-0.8340326944	-2.4785293959	 0.7948678133	 0.086064
H	-3.5102864734	-2.2467648616	-0.6928567073	 0.103958
H	-2.8534197432	-3.727333278	 0.031347255	 0.122402
H	-3.3197286815	-2.3575241078	 1.0626173852	 0.114387
H	-1.3390702745	-2.2751113328	-1.9556751063	 0.273852
91.0747	115.8533	173.4889	243.3979	251.5065	288.8279	331.3938	373.235	476.9194	492.5505	748.855	833.8287	871.1894	897.9878	956.0031	1002.1694	1044.2443	1066.7185	1101.7889	1140.7717	1176.2975	1245.4052	1291.6478	1308.4952	1344.6344	1364.4654	1396.2828	1404.8216	1414.0039	1421.2432	1475.8671	1492.5923	1494.8572	1496.2482	1500.8481	1511.6669	2987.0398	3020.4357	3021.787	3026.5097	3028.4859	3040.284	3070.862	3092.0454	3095.8403	3100.0581	3117.4271	3792.8398
CCCC(C)O	CCC[C@@H](C)O	
InChI=1S/C5H12O/c1-3-4-5(2)6/h5-6H,3-4H2,1-2H3	InChI=1S/C5H12O/c1-3-4-5(2)6/h5-6H,3-4H2,1-2H3/t5-/m1/s1
