14
gdb 1555	5.80938	1.29599	1.11153	3.9866	54.36	-0.2801	0.0093	0.2894	993.5637	0.111993	-361.711483	-361.703327	-361.702383	-361.744271	27.734	
O	-0.0706172644	 1.4470966518	-0.0372473403	-0.41974
C	 0.0334357777	 0.0349986451	 0.014490815	-0.081002
C	-1.3864275219	-0.5200500679	-0.0242602059	-0.189913
C	-1.4066172983	-2.0547870158	 0.0317081753	-0.025771
O	-0.7889861344	-2.5822928337	 1.1936464736	-0.407612
C	-2.7884970247	-2.5610062686	-0.1074487247	 0.258997
N	-3.8753590191	-2.9456650546	-0.1841363832	-0.31247
H	 0.8132243927	 1.8180257764	 0.0393738083	 0.290805
H	 0.6063325394	-0.3593545299	-0.8414970231	 0.090158
H	 0.5373748306	-0.305792277	 0.9294409924	 0.105009
H	-1.9599676917	-0.1140944035	 0.8174770879	 0.119687
H	-1.885263855	-0.1833401933	-0.93924566	 0.133412
H	-0.8225885523	-2.4567256341	-0.8047767679	 0.141909
H	-1.3071760187	-2.3093655149	 1.9601156627	 0.296532
83.87	101.5945	127.197	220.1925	260.4837	283.12	336.2673	369.0082	446.2698	582.9779	593.1751	800.442	887.4976	960.9423	1027.4894	1081.9654	1103.2736	1108.3892	1209.4305	1234.9931	1286.4985	1303.0612	1326.1786	1364.4159	1419.5614	1463.7421	1484.6939	1531.0712	2356.2341	2963.8984	3021.9781	3041.6072	3054.0029	3094.0486	3796.8726	3832.8462
OCCC(O)C#N	OCC[C@@H](O)C#N	
InChI=1S/C4H7NO2/c5-3-4(7)1-2-6/h4,6-7H,1-2H2	InChI=1S/C4H7NO2/c5-3-4(7)1-2-6/h4,6-7H,1-2H2/t4-/m1/s1
