15
gdb 4924	6.77376	1.29443	1.09956	0.4242	64.59	-0.1788	0.0445	0.2233	1046.5031	0.120349	-396.00919	-396.001437	-396.000492	-396.041039	28.676	
C	 0.0576593833	 1.3849950195	 0.0945043825	-0.326971
N	-0.1443707102	-0.0354469989	-0.1104863202	-0.376102
C	 0.5772235334	-0.652942902	-1.1110455652	 0.308916
C	 1.2388997205	-0.1281865883	-2.1749000423	-0.156639
O	 1.742446597	-1.2104470471	-2.9098567852	-0.190173
C	 1.3526650376	-2.2859356904	-2.2122421431	 0.46479
N	 1.7787804308	-3.5090823047	-2.6668140519	-0.589167
N	 0.6592235223	-2.0437076315	-1.1403452957	-0.402841
H	 1.110434253	 1.656025269	 0.2756655661	 0.111873
H	-0.2822915566	 1.936215349	-0.7898494513	 0.131322
H	-0.5433544492	 1.7175625594	 0.9436065191	 0.125021
H	-0.1746050919	-0.5928487962	 0.7308341717	 0.24249
H	 1.4362087041	 0.8499216643	-2.5689301999	 0.125603
H	 1.933276858	-3.5544705669	-3.6632454868	 0.263
H	 1.2297631582	-4.2758102953	-2.3079361379	 0.268881
96.2285	167.1009	198.7969	254.3307	302.7139	354.011	373.6347	502.3958	539.8729	552.9488	598.3799	691.1266	715.2634	755.9146	780.3582	977.3903	999.6703	1090.9662	1093.41	1142.363	1159.4199	1181.1171	1263.912	1308.9125	1450.3788	1457.5713	1480.219	1505.2893	1524.6373	1606.3126	1672.8079	1687.4623	2973.3459	3057.2948	3121.2027	3322.9558	3578.0801	3602.4107	3686.9344
CNC1=COC(N)=N1	CNc1coc(N)n1	
InChI=1S/C4H7N3O/c1-6-3-2-8-4(5)7-3/h2,6H,1H3,(H2,5,7)	InChI=1S/C4H7N3O/c1-6-3-2-8-4(5)7-3/h2,6H,1H3,(H2,5,7)
