13
gdb 2613	7.50382	1.22963	1.11165	3.9991	60.1	-0.2603	0.0095	0.2699	991.0788	0.101018	-303.458583	-303.45099	-303.450046	-303.490835	26.115	
C	 0.240754354	-0.6564725562	 0.8008202063	-0.453064
C	 0.0412967949	 0.3107593544	 0.1144738393	 0.299466
C	-0.1360821291	 1.5075868069	-0.7176043279	-0.310457
N	 1.0464117699	 2.366701446	-0.8372172336	-0.278366
C	 1.5071825759	 2.8829734668	 0.4510238839	-0.265891
C	 2.7012698598	 3.7130329116	 0.2792862228	 0.260421
N	 3.6561125255	 4.3501020974	 0.1519138082	-0.296658
H	 0.3994127758	-1.5175300549	 1.4025151509	 0.207429
H	-0.4345043953	 1.2129500488	-1.7294650356	 0.147728
H	-0.9588694918	 2.1144336703	-0.3187080083	 0.143979
H	 1.7990216857	 1.8436078992	-1.2743286049	 0.240451
H	 0.7124413235	 3.5046463906	 0.8823200652	 0.156553
H	 1.7344112213	 2.0988981991	 1.1925467938	 0.148407
58.285	106.7029	173.0314	206.2328	326.6929	354.0865	393.2363	517.4542	606.4066	633.5468	673.8051	775.5604	905.1176	922.4734	970.5612	999.4959	1103.5215	1133.8569	1229.9789	1301.0778	1357.4393	1386.8118	1462.9049	1492.7757	1503.0104	2227.2429	2369.3932	2972.3003	3031.558	3049.5103	3073.3933	3502.068	3522.3041
C#CCNCC#N	C#CCNCC#N	
InChI=1S/C5H6N2/c1-2-4-7-5-3-6/h1,7H,4-5H2	InChI=1S/C5H6N2/c1-2-4-7-5-3-6/h1,7H,4-5H2
