15
gdb 4464	3.49111	1.87446	1.23232	0.7336	65.51	-0.1742	0.042	0.2162	947.7313	0.119851	-396.023404	-396.015273	-396.014329	-396.055627	29.701	
C	 0.1648772809	 1.4893712388	-0.0336228147	-0.500936
C	-0.0429150973	 0.0231407286	-0.0231868544	 0.263414
C	-1.1004090524	-0.8159361706	 0.1115152173	 0.175847
N	-2.4494231823	-0.5404239771	 0.3399400246	-0.601953
N	-0.6770799041	-2.1433980339	 0.0704791957	-0.379753
C	 0.607133759	-2.0468688919	-0.0939210939	 0.44953
N	 1.5044660324	-3.0722911908	-0.2717623245	-0.589756
O	 1.0904357843	-0.798337252	-0.1628957498	-0.223251
H	 0.843963341	 1.8182772506	 0.7636207945	 0.130876
H	 0.5778577363	 1.8522413707	-0.9839791869	 0.12807
H	-0.7920728168	 1.9942869962	 0.1276513214	 0.126073
H	-2.7739698992	 0.3012917593	-0.1164895437	 0.24192
H	-3.0240238181	-1.3283904233	 0.0704367651	 0.250337
H	 1.1565355038	-3.9571023519	 0.0669302311	 0.267835
H	 2.4418753225	-2.8648483328	 0.0407364383	 0.261747
102.4568	169.2634	195.8094	244.3253	253.7007	287.3998	328.4214	363.863	519.041	601.8781	639.439	652.3415	661.0175	750.3904	771.6862	830.8235	956.7687	1027.8939	1065.7435	1072.5513	1150.6412	1181.8093	1281.6256	1393.5982	1425.6663	1454.6919	1467.251	1500.259	1604.8596	1636.6946	1681.3444	1729.6265	3007.9949	3048.9896	3106.3519	3545.4911	3573.7023	3640.797	3682.1368
CC1=C(N)N=C(N)O1	Cc1c(N)nc(N)o1	
InChI=1S/C4H7N3O/c1-2-3(5)7-4(6)8-2/h5H2,1H3,(H2,6,7)	InChI=1S/C4H7N3O/c1-2-3(5)7-4(6)8-2/h5H2,1H3,(H2,6,7)
