19
gdb 3404	3.66217	2.54606	2.04796	0.2062	70.86	-0.2466	0.0862	0.3328	752.0011	0.172249	-273.75753	-273.750304	-273.749359	-273.788179	28.083	
C	 0.1327590521	 1.6366236205	-0.3985553904	-0.41863
C	 0.237548894	 0.1392842504	-0.1857527062	 0.02001
C	 1.4674421035	-0.698870504	-0.3954410326	-0.069564
C	 2.7291391359	-0.0032457454	 0.1370883683	-0.262549
C	 2.10771521	-0.0075081971	 1.576785528	 0.051973
C	 2.07542469	 1.2565076454	 2.4304127769	-0.412884
C	 0.8142694114	-0.6034978076	 0.995504377	-0.092745
H	 1.0719375597	 2.1609876329	-0.2120919732	 0.121488
H	-0.1545715089	 1.8494931686	-1.434651955	 0.1111
H	-0.6294078011	 2.0784404618	 0.2530570989	 0.114586
H	-0.6497452767	-0.3821927165	-0.5445627128	 0.081496
H	 1.4761805227	-1.5389567424	-1.080239795	 0.078395
H	 3.6284693561	-0.6186279749	 0.0656556206	 0.098376
H	 2.9553468582	 0.9770042082	-0.296303229	 0.092736
H	 2.6087799918	-0.7943079472	 2.1515725079	 0.073844
H	 1.5987158374	 2.0961773673	 1.9191945386	 0.117176
H	 1.5218297683	 1.0799200601	 3.3598273292	 0.111686
H	 3.090384701	 1.5656571308	 2.7058591316	 0.109549
H	 0.2174200446	-1.3506274909	 1.5085055572	 0.073959
149.595	190.7094	232.8861	237.4575	295.5851	354.8631	455.7739	592.4794	655.2427	712.6903	781.0433	820.918	857.7482	898.184	954.2952	974.4885	991.7106	1004.5402	1060.2013	1064.3118	1090.0358	1119.2576	1123.3795	1150.5954	1197.7103	1219.0076	1246.5251	1276.3883	1306.3154	1351.1344	1380.6625	1407.4362	1415.4771	1448.3508	1488.3003	1493.8707	1498.6706	1506.5652	1508.6567	3028.1069	3030.7099	3036.2252	3043.5383	3084.0879	3085.9153	3102.3041	3104.1397	3119.4965	3130.1184	3155.6885	3175.3861
CC1C2CC(C)C12	C[C@H]1[C@H]2C[C@@H](C)[C@@H]12	
InChI=1S/C7H12/c1-4-3-6-5(2)7(4)6/h4-7H,3H2,1-2H3	InChI=1S/C7H12/c1-4-3-6-5(2)7(4)6/h4-7H,3H2,1-2H3/t4-,5+,6-,7+/m1/s1
