14
gdb 1407	5.85547	1.50153	1.39011	3.4414	60.97	-0.2516	0.0187	0.2703	873.245	0.111681	-324.560961	-324.553079	-324.552135	-324.593385	27.075	
C	-0.227263899	 1.3872221049	 0.0627599549	-0.346721
N	 0.0365388217	-0.037114058	-0.0463860334	-0.022463
C	-0.0135741384	-0.8449136874	 1.1604402532	-0.335963
C	-1.3481564492	-0.9216391837	 1.7605138016	 0.324485
C	-2.4424082844	-0.9704769329	 2.2536706585	-0.450269
C	 0.2707036177	-0.6068657397	-1.2653871319	 0.160105
O	 0.3117827079	-0.0157452848	-2.3219294877	-0.335637
H	 0.5126426624	 1.8683985379	 0.7138280097	 0.124048
H	-0.1624786573	 1.8119365558	-0.9386954884	 0.170479
H	-1.22539047	 1.5653254359	 0.4767375862	 0.139881
H	 0.3366249855	-1.852608852	 0.9086378776	 0.148559
H	 0.6931314947	-0.4440658669	 1.9010120465	 0.141103
H	-3.4108629851	-1.0230701513	 2.6869289027	 0.208442
H	 0.4327956035	-1.6998562878	-1.1800578794	 0.07395
54.0195	114.2722	156.6053	246.7192	316.0205	328.4854	335.615	377.0661	495.5776	629.4179	673.7968	718.6367	872.1776	946.5813	979.5774	1026.181	1089.9753	1160.958	1237.0609	1269.8538	1378.2776	1429.5018	1438.4435	1443.2465	1470.4412	1496.5427	1520.9966	1801.4322	2239.8323	2933.2296	3005.3326	3026.3144	3061.3386	3083.5751	3161.7291	3503.6584
CN(CC#C)C=O	CN(CC#C)C=O	
InChI=1S/C5H7NO/c1-3-4-6(2)5-7/h1,5H,4H2,2H3	InChI=1S/C5H7NO/c1-3-4-6(2)5-7/h1,5H,4H2,2H3
