15
gdb 3107	3.95458	2.14882	1.83754	3.1461	52.66	-0.2372	0.0387	0.276	732.2304	0.124459	-382.751274	-382.743801	-382.742857	-382.782637	27.568	
O	 0.1671244201	 1.1023431526	-0.5342455157	-0.429588
C	-0.0254846896	 0.0053174044	 0.3461585001	-0.0808
C	-1.4188161145	-0.5892721544	 0.2501714779	-0.109462
C	-1.876957642	-1.1840698096	-1.0594270136	 0.012545
O	-0.8889772327	-1.2121897511	-2.0706941939	-0.429806
C	-1.6239164039	-2.094609171	 0.1150822066	 0.082272
O	-0.5293159784	-2.9545115931	 0.044225882	-0.424753
H	 0.0526889235	 0.7532578679	-1.4254424955	 0.290382
H	 0.725522061	-0.7785825957	 0.1839586368	 0.092591
H	 0.1345399891	 0.3940094309	 1.3564002618	 0.111121
H	-2.1897736575	-0.0493877606	 0.7921647491	 0.095222
H	-2.8850057778	-0.9852850128	-1.4149650468	 0.097716
H	-1.1902496107	-1.7980151154	-2.7734663083	 0.302097
H	-2.4617182896	-2.5526089774	 0.6317158856	 0.104725
H	-0.0811519971	-2.7561138846	-0.7891852562	 0.285737
97.6436	149.9222	222.6368	262.0831	299.7799	343.2572	445.1218	494.3686	576.4044	604.2382	667.9625	768.8259	784.6932	888.8393	959.9592	1045.7257	1058.8851	1066.8355	1113.395	1126.1226	1147.5171	1219.1301	1234.6876	1266.4792	1324.0889	1343.3237	1395.7095	1408.6977	1438.2933	1465.0178	1512.263	3021.4114	3080.4398	3128.823	3148.8056	3160.9351	3747.7982	3802.394	3808.763
OCC1C(O)C1O	OC[C@H]1[C@@H](O)[C@H]1O	
InChI=1S/C4H8O3/c5-1-2-3(6)4(2)7/h2-7H,1H2	InChI=1S/C4H8O3/c5-1-2-3(6)4(2)7/h2-7H,1H2/t2-,3+,4-
