10
gdb 898	7.08554	2.34257	1.76052	2.3081	45.36	-0.2123	0.0416	0.2538	636.5841	0.066442	-396.458774	-396.452748	-396.451803	-396.488863	21.359	
O	 0.0772119308	 1.3206434973	 0.0071190058	-0.414051
C	-0.0519877116	-0.0056889573	 0.0011118104	 0.388002
C	-1.1088069403	-0.8120580676	 0.0031990444	-0.181621
O	-0.6308534988	-2.131425665	-0.0060589927	-0.221456
C	 0.7291993012	-2.0711641483	-0.0136101666	 0.512882
N	 1.5707764982	-3.0019096253	-0.0232768039	-0.574096
O	 1.1058176754	-0.7463965005	-0.009250911	-0.234179
H	 1.018171193	 1.5348270172	 0.0012983479	 0.323174
H	-2.1698592694	-0.6568614219	 0.010072189	 0.161814
H	 1.1037649315	-3.9049204385	-0.0251558033	 0.239532
89.635	175.2579	335.3834	343.9233	530.9343	614.5679	655.8467	660.1421	730.0154	759.5744	776.6029	926.368	998.5443	1010.5635	1092.9398	1177.9714	1236.4046	1328.4143	1399.3573	1786.4776	1841.0437	3332.3793	3548.0669	3814.4456
OC1=COC(=N)O1	OC1=CO[C@@H]([NH])O1	
InChI=1S/C3H3NO3/c4-3-6-1-2(5)7-3/h1,4-5H	InChI=1S/C3H4NO3/c4-3-6-1-2(5)7-3/h1,3-5H/t3-/m1/s1
