9
gdb 61	10.08927	4.54115	3.13487	2.7707	38.09	-0.2561	-0.064	0.192	384.4827	0.067668	-263.278851	-263.273589	-263.272645	-263.306835	17.972	
N	-0.160329288	 1.0852896189	-0.4539865153	-0.537131
C	 0.186491271	-0.0876232662	 0.14758021	 0.271441
N	 1.2897962671	-0.464274233	 0.6792702952	-0.492827
C	-0.9420438353	-1.0844026438	 0.2042362127	 0.1665
O	-2.0180220493	-0.8900768677	-0.3058314893	-0.263071
H	 0.5457443716	 1.7383792951	-0.7468924585	 0.257366
H	-1.0468491991	 1.0957085656	-0.9360779621	 0.271268
H	 2.0173819472	 0.2499182827	 0.598818108	 0.211131
H	-0.6774014753	-2.0100399514	 0.7474644092	 0.115323
173.6683	287.9478	318.1068	465.9865	520.7207	564.4766	632.2883	884.9858	905.9684	1044.5433	1093.5363	1142.7411	1366.605	1429.6223	1608.6445	1721.1433	1813.8405	2982.517	3446.1197	3582.6337	3716.5566
NC(=N)C=O	NC(=N)C=O	
InChI=1S/C2H4N2O/c3-2(4)1-5/h1H,(H3,3,4)	InChI=1S/C2H4N2O/c3-2(4)1-5/h1H,(H3,3,4)
