16
gdb 3056	8.85063	1.09953	1.02621	1.5139	69.35	-0.2416	0.053	0.2947	1148.8185	0.136067	-288.588657	-288.580524	-288.57958	-288.622553	27.618	
C	-0.0442848623	 1.3851608222	 0.2756787008	-0.49623
C	-0.0347234192	-0.0484501306	 0.0215983575	 0.071581
C	-0.0232971255	-1.2338101319	-0.188278887	 0.066951
C	-0.0376796465	-2.6727948774	-0.4410570084	-0.386408
C	-1.3941292823	-3.3134162799	-0.1858616035	 0.05131
C	-1.4704446605	-4.7168728307	 0.2855702579	-0.249281
N	-1.8360036937	-3.6041180748	 1.1826186725	-0.306215
H	 0.6673942129	 1.6556781479	 1.0636146178	 0.146367
H	 0.2254450793	 1.9519512422	-0.6223827915	 0.146403
H	-1.035708638	 1.724473834	 0.5955863291	 0.149801
H	 0.2599028051	-2.8687981771	-1.4805281404	 0.13146
H	 0.715473979	-3.1706387737	 0.1862260346	 0.117038
H	-2.1901665363	-2.9336197305	-0.8226325982	 0.100502
H	-2.2967528444	-5.3550684244	-0.0143184708	 0.119085
H	-0.5350297102	-5.2439830737	 0.4595337875	 0.108024
H	-1.0776573575	-3.4193426916	 1.8357814321	 0.229612
26.553	62.9617	101.7778	210.2711	262.326	351.8335	380.1938	385.7806	507.836	762.3439	791.2586	829.4044	923.4394	936.9462	976.6538	1047.7935	1054.2561	1055.6095	1123.2003	1149.0477	1166.9112	1177.0805	1246.0567	1265.8762	1311.8214	1324.3954	1415.4879	1419.9457	1463.1749	1479.0262	1479.2566	1512.599	2375.1743	3001.0192	3026.5423	3032.1282	3086.4082	3087.6219	3104.0535	3133.1992	3188.8623	3490.2599
CC#CCC1CN1	CC#CC[C@H]1CN1	
InChI=1S/C6H9N/c1-2-3-4-6-5-7-6/h6-7H,4-5H2,1H3	InChI=1S/C6H9N/c1-2-3-4-6-5-7-6/h6-7H,4-5H2,1H3/t6-/m0/s1
