14
gdb 4649	6.84013	1.26465	1.07153	2.79	74.66	-0.1902	0.0202	0.2104	1041.2361	0.108056	-341.587402	-341.579782	-341.578838	-341.619021	28.779	
N	 0.1148165291	 1.4072457796	 0.1274718044	-0.614396
C	-0.0199663014	 0.0068065043	 0.0434628613	 0.311687
C	-1.1045935162	-0.835392587	 0.0306759309	-0.346323
C	-0.6050171066	-2.182266794	 0.0059137323	 0.169323
C	 0.7755563502	-2.099730738	-0.0048826557	-0.202077
N	 1.1137080179	-0.7732377355	 0.0234026658	-0.260638
C	-1.3720981165	-3.3697233804	-0.0189701294	 0.236894
C	-2.0402488941	-4.3726277496	-0.0400645249	-0.4511
H	 0.3213706289	 1.8302957504	-0.7732910688	 0.245655
H	-0.7397516823	 1.8264556718	 0.4729514994	 0.249812
H	-2.1429191282	-0.5438578574	 0.0223956273	 0.093864
H	 1.5209773218	-2.8765107255	-0.0334217639	 0.126166
H	 2.0445645193	-0.4027103446	 0.1090411197	 0.263412
H	-2.624451272	-5.2582647241	-0.0582530685	 0.177719
125.1798	142.0645	148.7221	280.1205	374.9777	455.4895	510.782	524.8215	531.2452	550.0181	642.297	643.5828	668.4659	713.9549	726.1207	794.2094	829.4653	983.8543	1004.5262	1129.8012	1150.3275	1187.3172	1261.6836	1329.4323	1408.8052	1456.7311	1543.8192	1621.5946	1657.5831	2228.47	3257.4902	3276.9048	3490.184	3507.3768	3596.1726	3677.6955
NC1=CC(=CN1)C#C	Nc1cc(c[nH]1)C#C	
InChI=1S/C6H6N2/c1-2-5-3-6(7)8-4-5/h1,3-4,8H,7H2	InChI=1S/C6H6N2/c1-2-5-3-6(7)8-4-5/h1,3-4,8H,7H2
