14
gdb 4896	6.64679	1.2472	1.05728	4.3879	60.02	-0.1883	0.0452	0.2335	1035.1903	0.107823	-415.907429	-415.899456	-415.898511	-415.941176	27.952	
O	 0.0175476836	 1.4211991047	 0.0660432162	-0.408266
C	 0.0145392967	 0.0080978851	 0.0018950368	-0.186977
C	-1.4051354647	-0.4455691124	 0.0122283549	 0.324203
C	-2.5480280019	 0.2688522622	 0.0117812369	-0.165204
N	-3.606959791	-0.6398804294	 0.0206249098	-0.339375
C	-3.1507362473	-1.9502859583	 0.0287200425	 0.442443
O	-3.7927372799	-2.9819622878	 0.0397961471	-0.434461
N	-1.7663391057	-1.7938999486	 0.0210655369	-0.413761
H	 0.9265116604	 1.7229327711	-0.0128477044	 0.295873
H	 0.5184985189	-0.3552576097	-0.9112071759	 0.103255
H	 0.5550368144	-0.4369150044	 0.8565187909	 0.10157
H	-2.6893710217	 1.3341403416	 0.007116256	 0.149966
H	-4.5867034636	-0.4212008689	 0.0303529641	 0.267601
H	-1.1492252482	-2.5865175353	 0.0303419481	 0.263135
15.4832	147.4091	180.6841	209.3923	230.5537	367.1016	382.2503	476.0548	528.0955	614.8494	678.0363	719.5281	762.1231	762.3826	981.9507	997.5592	1052.9369	1081.7043	1100.5662	1186.9164	1224.4642	1233.5655	1243.2598	1358.2274	1391.4367	1414.5662	1486.7727	1521.9367	1700.8999	1844.2921	2936.8509	2949.408	3306.9973	3692.5937	3702.8501	3844.9214	15.4856	147.4091	180.6842	209.3921	230.554	367.1018	382.2503	476.055	528.0955	614.8494	678.0363	719.5283	762.1232	762.3827	981.9507	997.5592	1052.9367	1081.7044	1100.5662	1186.9164	1224.464	1233.5653	1243.2596	1358.2274	1391.4367	1414.5661	1486.7725	1521.9363	1700.8998	1844.2919	2936.8509	2949.408	3306.9974	3692.5938	3702.8501	3844.9214
OCC1=CNC(=O)N1	OCc1c[nH]c(=O)[nH]1	
InChI=1S/C4H6N2O2/c7-2-3-1-5-4(8)6-3/h1,7H,2H2,(H2,5,6,8)	InChI=1S/C4H6N2O2/c7-2-3-1-5-4(8)6-3/h1,7H,2H2,(H2,5,6,8)
