13
gdb 2655	22.60627	0.76046	0.74254	1.2171	77.05	-0.229	-0.0129	0.2161	1474.0311	0.099342	-307.265351	-307.256761	-307.255817	-307.301153	27.61	
C	-0.0014147665	 1.4694651979	 0.0342603822	-0.518307
C	-0.0032366417	 0.0183353816	-0.0005139602	 0.251141
C	-0.007234006	-1.1916138627	-0.0285065401	-0.194476
C	-0.0122517564	-2.5508636172	-0.0596749652	-0.212548
C	-0.0208706295	-3.7605881864	-0.0854373158	 0.321664
C	 0.0067065004	-5.2141694737	-0.1343411736	-0.245088
O	-1.1930499208	-5.7385023046	 0.4208394406	-0.407937
H	 0.7886583866	 1.8506787483	 0.6910884292	 0.156261
H	 0.1617688306	 1.8905540872	-0.9642574485	 0.156307
H	-0.9576597118	 1.8552300774	 0.4054890688	 0.158223
H	 0.1353954901	-5.5328795561	-1.1822977435	 0.121804
H	 0.8924845596	-5.5723052183	 0.416553695	 0.121806
H	-1.1358227146	-6.6982788835	 0.3700898112	 0.29115
4.4035	74.7901	94.2072	185.8904	214.4937	250.3101	341.6672	381.9501	464.9445	564.7659	565.9776	645.8672	937.3695	1021.1962	1047.4118	1049.0158	1057.2278	1241.9023	1242.7731	1291.972	1411.6567	1460.8172	1471.2526	1472.4494	1497.8951	2282.5003	2388.5097	2956.9937	2974.4929	3023.5383	3085.5509	3086.0767	3816.3358	4.3363	74.7902	94.2072	185.8899	214.4945	250.3094	341.6666	381.9496	464.9443	564.7656	565.9776	645.8672	937.3695	1021.1961	1047.4118	1049.0159	1057.2279	1241.9023	1242.7731	1291.9721	1411.657	1460.8172	1471.2531	1472.4499	1497.8951	2282.5001	2388.5096	2956.9938	2974.493	3023.5384	3085.5509	3086.0767	3816.336
CC#CC#CCO	CC#CC#CCO	
InChI=1S/C6H6O/c1-2-3-4-5-6-7/h7H,6H2,1H3	InChI=1S/C6H6O/c1-2-3-4-5-6-7/h7H,6H2,1H3
