13
gdb 1166	3.73099	2.16435	1.92815	0.8963	51.49	-0.2616	-0.0689	0.1927	709.9145	0.097882	-381.60777	-381.600052	-381.599107	-381.639582	26.757	
C	 0.2762625169	 1.5135575848	 0.5436579342	-0.421384
C	 0.0913293503	 0.0803870509	 0.008175519	 0.190727
O	 0.589510926	-0.8815703009	 0.8938945318	-0.462742
C	-1.3971491272	-0.1660153429	-0.2387409583	 0.126237
O	-1.9818840906	-1.058915806	 0.3211635653	-0.25982
C	 0.8000275962	-0.0631040133	-1.3512400733	 0.113017
O	 0.7010231514	 0.7339673855	-2.2455265327	-0.244254
H	 1.3279118175	 1.6626267665	 0.8001926356	 0.146063
H	-0.0076039808	 2.2432892376	-0.2179722233	 0.14527
H	-0.3245345891	 1.6640997126	 1.4443172619	 0.133084
H	-0.1676019883	-1.4390429568	 1.138206138	 0.298049
H	-1.8910894135	 0.5229049865	-0.9488453955	 0.125664
H	 1.4069761213	-0.9907864346	-1.4208371827	 0.110089
87.7069	120.7054	212.5249	245.5253	274.4703	319.6984	356.7932	407.7706	506.266	532.3707	678.7658	826.0675	880.1802	943.7099	962.3609	1033.4949	1133.3517	1164.5539	1233.1489	1366.2887	1372.7286	1393.9071	1408.8023	1484.6013	1494.0861	1798.3512	1835.531	2917.8305	2972.5674	3051.2254	3130.955	3143.0938	3675.8006
CC(O)(C=O)C=O	CC(O)(C=O)C=O	
InChI=1S/C4H6O3/c1-4(7,2-5)3-6/h2-3,7H,1H3	InChI=1S/C4H6O3/c1-4(7,2-5)3-6/h2-3,7H,1H3
