19
gdb 2360	4.75727	1.81425	1.4201	1.9323	66.86	-0.2416	0.071	0.3126	896.9405	0.171008	-310.904086	-310.896046	-310.895102	-310.936527	28.895	
C	-0.1549161709	 1.4861938318	 0.0340368776	-0.391717
C	 0.0454004891	-0.0333788925	-0.0442766745	 0.017495
C	 0.7815176289	-0.4298712547	-1.3312447722	-0.391717
C	 0.7831104451	-0.5515633707	 1.1889430681	 0.009415
C	 0.054936158	-0.5112419425	 2.5527398994	-0.094054
O	 0.2355998474	-1.9283152869	 2.7455753909	-0.273481
C	 0.8205050631	-2.0776981659	 1.4365713045	-0.094054
H	 0.8099993346	 2.0070590005	 0.0472836254	 0.113102
H	-0.7190741984	 1.8549030977	-0.8287081137	 0.113383
H	-0.7019720485	 1.7749367114	 0.9376811529	 0.115495
H	-0.9472249066	-0.5077250155	-0.059401415	 0.073546
H	 1.7792963419	 0.0237516009	-1.365913696	 0.113102
H	 0.9060280993	-1.5152363074	-1.4067123161	 0.115495
H	 0.2339710993	-0.0951558726	-2.218210437	 0.113383
H	 1.7795956407	-0.0992903125	 1.2376924706	 0.073299
H	 0.5271135565	 0.0751213771	 3.3499312411	 0.099989
H	-1.0089308695	-0.2384811421	 2.4965935452	 0.093666
H	 0.1778765379	-2.6668478574	 0.766276423	 0.093666
H	 1.8095844422	-2.5489848888	 1.4801405259	 0.099989
69.7467	99.3034	179.5877	221.6037	240.5572	308.7997	335.1152	438.1279	453.327	716.3666	850.4574	895.0481	898.0532	929.1174	962.315	979.3228	1003.1116	1014.0829	1044.6202	1092.9172	1147.2084	1159.2078	1163.5474	1188.1507	1229.0362	1269.9394	1305.0952	1310.7567	1353.1709	1375.5491	1401.1183	1404.216	1423.0514	1486.6235	1491.5164	1504.6439	1509.8612	1510.5154	1536.1898	2988.912	2992.4402	3001.6459	3023.7239	3027.4296	3036.9452	3047.0494	3061.1715	3089.0631	3094.0673	3098.6332	3101.5914
CC(C)C1COC1	CC(C)C1COC1	
InChI=1S/C6H12O/c1-5(2)6-3-7-4-6/h5-6H,3-4H2,1-2H3	InChI=1S/C6H12O/c1-5(2)6-3-7-4-6/h5-6H,3-4H2,1-2H3
