16
gdb 219	4.51049	2.68409	2.68378	0.6082	62.05	-0.2585	0.0629	0.3214	624.7654	0.140054	-234.476516	-234.468849	-234.467905	-234.506959	28.513	
C	-0.0157016381	 1.5414639587	 0.0053509438	-0.391913
C	 0.0021734776	-0.0038358644	 0.0019500421	 0.084879
C	 0.7537088612	-0.5185861205	 1.250434189	-0.391873
C	-1.4467875041	-0.5417611854	 0.0076021098	-0.391951
C	 0.6888501202	-0.4771622836	-1.2056108683	 0.363664
C	 1.2514147732	-0.865500009	-2.1949648624	-0.525504
H	 1.0012037305	 1.9436153865	-0.002007883	 0.121577
H	-0.5406714357	 1.9282857238	-0.8725091275	 0.121568
H	-0.525775161	 1.9086397916	 0.9023621112	 0.110053
H	 0.2499047528	-0.1739976275	 2.1599349254	 0.110046
H	 0.7834503639	-1.6116340686	 1.2658394854	 0.121584
H	 1.7833357376	-0.1503965512	 1.2662417258	 0.121539
H	-1.9971559453	-0.1917374353	-0.870203022	 0.121567
H	-1.4581963864	-1.6352980547	 0.0017917215	 0.121587
H	-1.9719301621	-0.1961299535	 0.9045269904	 0.110037
H	 1.7481732356	-1.2086583768	-3.0683575513	 0.19314
177.0363	177.5717	212.0998	267.3478	272.2879	351.6212	354.1089	378.838	552.539	552.9517	625.1629	625.2084	695.0025	893.2551	931.0654	932.287	965.4626	1049.4947	1050.6725	1224.3488	1225.1546	1273.5321	1394.1804	1395.0116	1427.5254	1474.309	1484.8093	1485.1442	1498.3934	1498.4961	1517.2845	2230.214	3032.5057	3032.91	3039.4586	3104.7991	3105.2613	3111.5272	3115.4	3119.4236	3119.7245	3503.1546
CC(C)(C)C#C	CC(C)(C)C#C	
InChI=1S/C6H10/c1-5-6(2,3)4/h1H,2-4H3	InChI=1S/C6H10/c1-5-6(2,3)4/h1H,2-4H3
