13
gdb 1215	6.40513	1.40078	1.31774	3.4698	56.57	-0.2542	0.0348	0.289	901.0117	0.101219	-340.637067	-340.629366	-340.628422	-340.669486	27.326	
N	-0.1813796979	 1.2885459129	 0.2269900841	-0.559857
C	-0.0499080514	-0.0891076792	 0.124859717	 0.456038
O	 0.8375725953	-0.7101409142	 0.6777663689	-0.38179
N	-1.0270151637	-0.6819594256	-0.6559461473	-0.336879
C	-1.1682374635	-2.1337839297	-0.6400937054	-0.284675
C	-2.3777503857	-2.5844753215	 0.0457691216	 0.292712
C	-3.3919598201	-2.9339841018	 0.5874698777	-0.457565
H	 0.6502071551	 1.7297927043	 0.5892612653	 0.263026
H	-0.6033568234	 1.7793280837	-0.5470439259	 0.249079
H	-1.8775182436	-0.1606445069	-0.804442089	 0.244717
H	-1.1633515132	-2.5220353693	-1.6664337132	 0.133153
H	-0.2740775478	-2.516570582	-0.1384270093	 0.179538
H	-4.2760473001	-3.2546072707	 1.0807584353	 0.202503
40.476	91.9274	227.3263	276.5486	327.9528	386.465	425.5534	494.9632	556.787	577.2271	617.0761	656.3783	668.6242	773.8369	911.7071	947.1597	1041.5526	1103.5805	1147.2369	1268.014	1319.4461	1386.3692	1475.01	1528.4778	1627.9564	1806.9123	2238.6563	3024.0763	3091.565	3505.5447	3575.7168	3619.7651	3690.1078
NC(=O)NCC#C	NC(=O)NCC#C	
InChI=1S/C4H6N2O/c1-2-3-6-4(5)7/h1H,3H2,(H3,5,6,7)	InChI=1S/C4H6N2O/c1-2-3-6-4(5)7/h1H,3H2,(H3,5,6,7)
