17
gdb 3045	10.27432	1.01827	0.99298	2.8081	65.69	-0.2475	-0.019	0.2284	1157.9233	0.147134	-309.71657	-309.708733	-309.707789	-309.749615	27.302	
O	-0.50251396	 0.6877802715	 0.7946891878	-0.236982
C	 0.056091008	 1.0572675466	-0.2057885965	 0.157663
C	 1.3661873173	 1.8068871936	-0.2481517467	-0.263211
C	 1.2355737724	 3.1527622155	-0.9882163214	-0.218474
C	 2.563689799	 3.8620199597	-1.1461950153	 0.038846
C	 3.4795197913	 3.5161735201	-2.2939032554	-0.256037
C	 2.7747491068	 4.8514559587	-2.2622153605	-0.276653
H	-0.3891268302	 0.8637893563	-1.2117228044	 0.066619
H	 1.7252238623	 1.9444863636	 0.776009992	 0.119846
H	 2.0931216191	 1.1802607885	-0.7847221613	 0.120658
H	 0.7967991032	 2.9815713773	-1.9804520775	 0.098241
H	 0.5307903691	 3.7962584189	-0.4463870616	 0.113319
H	 3.0553056066	 4.0979265112	-0.2054122741	 0.086288
H	 4.5490440912	 3.491654748	-2.1175905672	 0.114209
H	 3.1333100849	 2.7815847723	-3.0145149556	 0.109113
H	 1.9589443336	 5.0083530527	-2.960495448	 0.112053
H	 3.3617320355	 5.7406017353	-2.0608974143	 0.114501
57.3149	71.2782	107.262	164.1387	302.7564	358.9786	409.9371	523.9281	760.8788	773.1185	802.572	836.5461	866.7965	929.2432	955.1063	1015.0632	1038.9792	1062.9294	1079.6824	1094.2632	1140.8185	1170.375	1197.388	1228.6988	1233.1805	1266.3852	1316.4898	1357.6895	1416.0675	1432.1464	1462.5972	1469.3595	1491.8066	1507.7441	1836.554	2841.2031	3011.9505	3018.1822	3051.7907	3098.6501	3127.4129	3132.3622	3136.6409	3206.3245	3221.5586
O=CCCC1CC1	O=CCCC1CC1	
InChI=1S/C6H10O/c7-5-1-2-6-3-4-6/h5-6H,1-4H2	InChI=1S/C6H10O/c7-5-1-2-6-3-4-6/h5-6H,1-4H2
