14
gdb 3465	5.53515	2.59997	2.56591	1.9229	57.46	-0.2267	0.0031	0.2298	586.6598	0.116177	-324.522751	-324.51752	-324.516576	-324.551381	21.639	
O	 0.1992109527	 1.3431896278	-0.1520004616	-0.441678
C	 0.0723350372	-0.0310153447	-0.0550943187	 0.216096
C	 0.0534933388	-0.6492832777	 1.4111553251	-0.101909
N	-1.3492527409	-0.1052279106	 1.459806268	-0.33268
C	-1.4063470331	-0.610966078	 0.043104612	-0.101907
C	-1.0966321788	-2.1003050729	 0.1537451561	-0.090468
C	-0.1184869197	-2.1259853425	 1.0704623445	-0.09047
H	-0.4109209411	 1.7023746656	 0.5091344057	 0.288362
H	 0.7396632478	-0.4973044646	-0.7802611356	 0.090594
H	 0.751300739	-0.3388067269	 2.1886024193	 0.072134
H	-1.9521258773	-0.6391742097	 2.0881769596	 0.205666
H	-2.218180388	-0.2608648496	-0.5941634556	 0.072135
H	-1.5190917435	-2.8977232685	-0.4406299848	 0.107062
H	 0.4793410569	-2.9501896277	 1.4322886761	 0.107061
280.2164	340.6152	477.8088	535.7676	599.9543	604.6057	701.2677	740.3426	816.9637	851.889	894.671	907.4238	932.1636	935.1535	956.3813	1007.2825	1071.4843	1099.3579	1143.0166	1161.4	1193.4276	1210.2484	1239.2195	1291.5989	1310.2722	1311.7066	1322.1061	1440.6186	1602.0038	3121.64	3122.4482	3129.3086	3223.2645	3249.3956	3437.5133	3733.3949
OC1C2NC1C=C2	O[C@H]1[C@H]2N[C@@H]1C=C2	
InChI=1S/C5H7NO/c7-5-3-1-2-4(5)6-3/h1-7H	InChI=1S/C5H7NO/c7-5-3-1-2-4(5)6-3/h1-7H/t3-,4+,5-
