21
gdb 1571	6.06909	1.09287	0.98659	1.2822	71.32	-0.2624	0.0787	0.3411	1233.9153	0.192959	-312.12682	-312.117231	-312.116287	-312.161168	33.726	
C	 0.0570601787	 1.5901138705	 0.0387986298	-0.378554
C	-0.0165870399	 0.0611244051	-0.0067256491	-0.172357
C	 0.6544135736	-0.5280035519	-1.2535802873	-0.167194
C	 0.6864438812	-2.0652076124	-1.3057683365	 0.039209
C	-0.7113358644	-2.6916141342	-1.3990436687	-0.389624
C	 1.5643916668	-2.5299525239	-2.4694562466	-0.079074
O	 1.6976012365	-3.9434178707	-2.4037615117	-0.424171
H	 1.0964938773	 1.9372315963	 0.0397996993	 0.112129
H	-0.4376800528	 2.0366384016	-0.8311626039	 0.112592
H	-0.4273459741	 1.9874509538	 0.9363261334	 0.110215
H	 0.4612971074	-0.3556795092	 0.8899143001	 0.094286
H	-1.0667470045	-0.250406438	 0.0356113743	 0.100077
H	 0.1461852189	-0.1460611899	-2.151332484	 0.088042
H	 1.6847570539	-0.1486234425	-1.3054755289	 0.086066
H	 1.1681577268	-2.4310941835	-0.3876122377	 0.078651
H	-0.6339047645	-3.7756659867	-1.5073937898	 0.132188
H	-1.3121433459	-2.4791841835	-0.5105318394	 0.109982
H	-1.2533542381	-2.302137062	-2.2703064579	 0.102715
H	 1.104622442	-2.2192019885	-3.4230966116	 0.079667
H	 2.5496574379	-2.0404387831	-2.4055660856	 0.07985
H	 2.184803653	-4.2364018672	-3.1787659482	 0.285305
65.6885	78.546	121.1137	155.8354	227.5294	243.1948	244.8879	289.7108	321.8712	368.3314	431.4807	533.4642	742.5248	833.5216	868.8896	894.8459	928.352	958.7786	1020.9248	1041.9526	1062.4138	1085.4786	1132.5806	1170.3651	1193.3924	1236.4221	1264.4277	1278.5211	1303.7229	1328.6144	1349.573	1381.5531	1395.6532	1406.2034	1412.8344	1457.3969	1480.452	1493.8019	1495.4105	1498.812	1506.6019	1510.9407	1520.8576	2953.3233	2982.0616	2994.9397	3007.8811	3019.0762	3027.4233	3027.6336	3031.1403	3060.5615	3094.3777	3098.1666	3100.4199	3128.8443	3835.9027
CCCC(C)CO	CCC[C@@H](C)CO	
InChI=1S/C6H14O/c1-3-4-6(2)5-7/h6-7H,3-5H2,1-2H3	InChI=1S/C6H14O/c1-3-4-6(2)5-7/h6-7H,3-5H2,1-2H3/t6-/m1/s1
