19
gdb 2860	6.20521	1.32116	1.25661	1.6989	68.35	-0.2561	0.0979	0.354	1047.8336	0.170254	-310.911279	-310.902804	-310.901859	-310.944373	30.096	
C	 0.542513662	 1.4044713775	 0.2020164055	-0.373621
C	-0.2807977909	 0.151961019	-0.1243103743	-0.212414
C	 0.1999685268	-0.5181432246	-1.3896089526	 0.07473
O	 1.4364455103	-1.243065988	-1.3227870196	-0.268969
C	 0.2389063725	-1.9698260287	-1.6335401866	 0.074732
C	-0.1951698185	-3.0405456017	-0.6607639039	-0.212416
C	 0.6951626672	-4.2862156087	-0.7542126445	-0.373621
H	 1.596370473	 1.1449043237	 0.3394196084	 0.134374
H	 0.481824821	 2.1407738215	-0.6068974991	 0.114617
H	 0.1856898732	 1.8838687279	 1.1182663056	 0.112218
H	-0.2312819504	-0.5495599766	 0.7131806192	 0.104914
H	-1.3373125902	 0.4213812396	-0.2542304938	 0.099026
H	 0.1262290485	 0.1186768424	-2.2762342484	 0.08064
H	 0.190704467	-2.2850667054	-2.6801455258	 0.08064
H	-0.1749722348	-2.6494628525	 0.3603242198	 0.104914
H	-1.2372940499	-3.3074595186	-0.880816519	 0.099027
H	 0.6658652023	-4.7200457959	-1.7597462283	 0.114617
H	 1.7352124352	-4.0311769972	-0.530337311	 0.134375
H	 0.3718645057	-5.0564928035	-0.0479473315	 0.112217
65.8059	85.4573	148.7211	195.2086	226.6441	248.6777	307.9274	423.0697	480.6979	567.3949	738.7824	768.0072	806.5856	835.1634	927.6708	946.784	1000.2229	1040.3487	1040.9333	1080.2835	1132.3291	1138.9622	1186.4564	1189.1905	1286.4121	1297.0795	1308.6373	1335.086	1354.8058	1406.9655	1410.4054	1420.5147	1468.4108	1478.9263	1495.7295	1498.7722	1498.9226	1507.2327	1512.0033	3025.8991	3028.4846	3036.1301	3036.4961	3053.3321	3067.1629	3082.0553	3090.8919	3106.5021	3110.571	3116.5343	3117.3758
CCC1OC1CC	CC[C@H]1O[C@H]1CC	
InChI=1S/C6H12O/c1-3-5-6(4-2)7-5/h5-6H,3-4H2,1-2H3	InChI=1S/C6H12O/c1-3-5-6(4-2)7-5/h5-6H,3-4H2,1-2H3/t5-,6+
