12
gdb 70	8.9331	4.19405	2.96046	3.7163	44.42	-0.2424	0.0327	0.2751	441.85	0.10227	-248.430371	-248.424309	-248.423365	-248.459383	19.918	
C	-0.0977649852	 1.4491726843	 0.0456198436	-0.339028
N	 0.0104305285	 0.0037381798	-0.0007060021	-0.025664
C	 0.0532302782	-0.7143211245	 1.2526489052	-0.331702
C	 0.0672871579	-0.6406722467	-1.2006077779	 0.156014
O	 0.0363643221	-0.1100651522	-2.2910922799	-0.340276
H	 0.7565066013	 1.887471091	 0.5764742123	 0.123719
H	-0.1164857683	 1.8163210336	-0.9804917213	 0.169378
H	-1.0164110588	 1.7552154788	 0.5615141529	 0.123713
H	-0.8545355567	-0.5365767497	 1.8439016843	 0.128214
H	 0.1329772232	-1.7869633573	 1.058513514	 0.137559
H	 0.9163734795	-0.4073784559	 1.8576134454	 0.12822
H	 0.1476223984	-1.7380133914	-1.0680513864	 0.069853
131.9214	181.1959	232.8647	322.4794	339.637	392.1652	662.3926	877.7941	1028.8139	1085.2055	1100.9269	1134.507	1183.4328	1286.5656	1416.6514	1433.1549	1439.9911	1472.5864	1476.0651	1498.4205	1505.5276	1543.409	1798.0125	2932.5604	3006.7839	3017.1866	3053.2888	3064.369	3116.26	3157.2259
CN(C)C=O	CN(C)C=O	
InChI=1S/C3H7NO/c1-4(2)3-5/h3H,1-2H3	InChI=1S/C3H7NO/c1-4(2)3-5/h3H,1-2H3
