12
gdb 3792	8.07423	2.10886	1.69847	2.2237	52.12	-0.2232	-0.0165	0.2066	693.3593	0.09265	-352.855499	-352.84922	-352.848276	-352.885842	21.728	
C	 0.0660991751	 1.4160878416	 0.028460251	-0.321988
N	-0.1184331559	-0.0188637018	-0.1230810039	-0.366797
C	 0.5617093799	-0.6906509393	-1.0976023999	 0.495075
N	 0.7125598024	-2.016917582	-1.1200870607	-0.321671
N	 1.3772666561	-2.1596031933	-2.270156945	-0.066121
N	 1.6315012933	-1.041864465	-2.913787718	-0.103304
N	 1.1214592894	-0.0802743236	-2.1809255635	-0.278713
H	 1.0784439254	 1.6917872512	 0.3560293095	 0.122909
H	-0.1238984968	 1.9084660587	-0.9270271194	 0.161725
H	-0.6556729375	 1.7850913128	 0.7603035994	 0.126337
H	-0.2397556942	-0.5483049411	 0.7260057941	 0.254211
H	 1.6673080528	-3.0596558582	-2.6199151634	 0.298335
103.7916	142.0316	219.7471	341.4083	446.1637	528.9881	552.1171	716.9792	743.1249	784.0799	1017.9453	1044.309	1108.9413	1151.3434	1159.6209	1170.299	1189.3133	1274.5319	1361.5623	1445.9389	1464.5907	1488.7751	1516.5323	1521.1114	1639.3643	3005.8196	3098.8944	3142.3439	3630.7804	3658.4003
CNC1=NNN=N1	CNc1n[nH]nn1	
InChI=1S/C2H5N5/c1-3-2-4-6-7-5-2/h1H3,(H2,3,4,5,6,7)	InChI=1S/C2H5N5/c1-3-2-4-6-7-5-2/h1H3,(H2,3,4,5,6,7)
