14
gdb 4521	3.70852	1.77411	1.2085	1.2881	61.68	-0.1635	0.0506	0.2141	935.7493	0.107649	-415.870361	-415.862434	-415.86149	-415.902095	29.6	
N	 0.1451805519	 1.3589682049	-0.1363063939	-0.593293
C	-0.0497699081	-0.0152830815	-0.0486477761	 0.384624
C	-1.1589694868	-0.8052268959	-0.0409827549	-0.342933
C	-0.6748885445	-2.1662529494	-0.0616471603	 0.162559
N	-1.4611152276	-3.3302066093	-0.1349072904	-0.617756
C	 0.6776078659	-2.0851288286	-0.0679915427	 0.257849
O	 1.6425341716	-3.0286705321	 0.0139859704	-0.430831
O	 1.0815056961	-0.7582284301	-0.0649173915	-0.199202
H	 0.9356111462	 1.6725680226	 0.4146736692	 0.25284
H	-0.68496238	 1.8770993785	 0.1174751995	 0.251791
H	-2.1874429871	-0.4805722598	-0.0400583854	 0.089125
H	-2.2391792909	-3.3020600271	 0.5141349189	 0.240085
H	-0.9052688191	-4.153580153	 0.0666179315	 0.242872
H	 2.0821012324	-3.1231118492	-0.8411619542	 0.302271
168.9876	192.6549	218.5808	242.6756	258.35	312.1642	322.4647	372.5789	536.6954	604.4585	621.8123	661.385	671.728	710.4346	749.0295	820.3102	841.0579	1010.5092	1058.3649	1106.9058	1172.2325	1212.3935	1248.1143	1331.5424	1388.1106	1473.0576	1618.1024	1647.7536	1670.7002	1744.0131	3253.6923	3513.2956	3532.6001	3601.0755	3636.9889	3727.8086
NC1=CC(N)=C(O)O1	Nc1cc(N)c(O)o1	
InChI=1S/C4H6N2O2/c5-2-1-3(6)8-4(2)7/h1,7H,5-6H2	InChI=1S/C4H6N2O2/c5-2-1-3(6)8-4(2)7/h1,7H,5-6H2
