19
gdb 1513	7.95712	1.11423	1.00746	2.426	68.27	-0.2404	-0.0055	0.2349	1207.804	0.168958	-310.955141	-310.945889	-310.944945	-310.990516	31.407	
C	-9.9614*^-6	 1.6064730532	-0.028566676	-0.386651
C	-0.0087586515	 0.0767621839	 0.018325883	-0.157235
C	 0.6778968961	-0.5558367274	-1.1919555251	-0.27842
C	 0.6848766986	-2.0801587968	-1.1765541195	 0.370393
O	 0.1793754781	-2.7140310957	-0.2775914954	-0.296869
C	 1.3649751321	-2.7638942863	-2.3581181829	-0.274972
C	 1.3309625068	-4.288431809	-2.2853894535	-0.373703
H	 1.0224689437	 2.0004567368	-0.052973182	 0.111727
H	-0.5182477297	 1.9826878403	-0.91804899	 0.111748
H	-0.4975201242	 2.0310287211	 0.8487877741	 0.115228
H	 0.4829469408	-0.2761398443	 0.9311547084	 0.111255
H	-1.0376791084	-0.2937748997	 0.0774695856	 0.111569
H	 0.2008023017	-0.2291974478	-2.1276703988	 0.115334
H	 1.7195036207	-0.2125746548	-1.2753496238	 0.115029
H	 0.8872392671	-2.3997980448	-3.2783172565	 0.118178
H	 2.3979100395	-2.3926038003	-2.4116851629	 0.118456
H	 1.8262503741	-4.646508529	-1.3793624355	 0.130676
H	 0.3015808427	-4.6545562936	-2.2565792183	 0.130386
H	 1.8317967531	-4.728854956	-3.1521317809	 0.10787
20.3423	58.5222	90.8617	140.078	190.9698	246.469	273.7524	328.7425	405.9752	471.4718	647.5512	700.3985	772.3046	827.2974	870.2854	899.8524	999.2994	1017.4167	1019.5183	1053.7087	1123.2979	1143.6189	1148.1081	1245.0519	1288.4069	1315.4044	1326.2677	1369.5011	1395.6298	1413.3278	1414.48	1445.7154	1459.075	1486.4834	1491.9395	1497.9178	1500.6215	1508.0433	1805.2459	3004.3154	3018.8453	3027.3029	3028.912	3045.3418	3049.368	3051.1268	3074.2833	3099.3631	3102.734	3121.8731	3127.4132
CCCC(=O)CC	CCCC(=O)CC	
InChI=1S/C6H12O/c1-3-5-6(7)4-2/h3-5H2,1-2H3	InChI=1S/C6H12O/c1-3-5-6(7)4-2/h3-5H2,1-2H3
