13
gdb 1118	5.24232	1.81227	1.43005	3.3056	51.31	-0.2438	0.0098	0.2536	801.7128	0.101907	-377.848074	-377.840535	-377.839591	-377.880298	26.616	
N	 0.4165313719	 0.5554230413	-0.46505629	-0.507562
C	-0.5196612962	 0.42807504	 0.5083844338	 0.384863
O	-0.979063657	 1.3500464993	 1.1527770803	-0.360066
C	-0.9250684775	-1.0270468052	 0.8147004105	-0.406234
C	-1.1591776275	-1.9081106961	-0.4077604587	 0.413655
N	-2.3029303771	-2.6385059243	-0.3849288398	-0.508095
O	-0.3678523263	-1.974049351	-1.3376328773	-0.374982
H	 0.6497519024	 1.4887672135	-0.7634074095	 0.255931
H	 0.5822489222	-0.233953831	-1.0782583124	 0.279618
H	-0.1014257124	-1.4840919255	 1.3767634213	 0.160647
H	-1.793018059	-0.9800603968	 1.4733305418	 0.125895
H	-2.9779528382	-2.560795712	 0.3545056705	 0.269012
H	-2.5043641653	-3.2366835922	-1.1699231906	 0.267317
58.7597	70.8625	231.0146	245.5438	371.8257	399.0283	469.8226	507.5463	563.3749	570.3554	636.5497	702.602	725.6056	884.7023	898.4621	960.4709	1083.9651	1146.2469	1190.6652	1273.2564	1345.6894	1395.8806	1453.97	1613.4609	1620.257	1771.5088	1810.6242	3049.6417	3129.5624	3514.6158	3604.1177	3688.7547	3743.1497
NC(=O)CC(N)=O	NC(=O)CC(=O)N	
InChI=1S/C3H6N2O2/c4-2(6)1-3(5)7/h1H2,(H2,4,6)(H2,5,7)	InChI=1S/C3H6N2O2/c4-2(6)1-3(5)7/h1H2,(H2,4,6)(H2,5,7)
