12
gdb 3626	5.74208	3.81153	3.58683	0.2026	50.7	-0.2482	0.0568	0.3049	456.6318	0.092211	-323.268818	-323.264641	-323.263697	-323.296466	17.318	
O	-0.0700828897	 1.4987320008	 0.1134776789	-0.288199
C	 1.3670104986	 1.5026318179	-0.0379997668	 0.061263
C	 1.9629198282	 0.6238279992	 1.0925915774	-0.056344
C	 0.9487091219	-0.4642261794	 1.096366624	-0.056343
C	 0.0263494256	 0.0643532954	-0.0330119038	 0.061263
C	 1.3540710179	 0.1679646562	-0.8298582755	-0.032389
N	 2.1695803667	-0.5885252484	 0.2292801404	-0.183107
H	 1.7970237168	 2.4617445903	-0.3162827916	 0.094208
H	 2.6215948552	 0.8724400588	 1.914242511	 0.104789
H	 0.7497742446	-1.1356642664	 1.9212101538	 0.104789
H	-0.9011797156	-0.4329232621	-0.3062436466	 0.094208
H	 1.51611645	 0.0132273477	-1.8936416411	 0.095861
547.2518	563.0602	757.521	771.0049	785.3743	795.7035	841.0846	857.6172	874.651	880.9182	912.7076	934.4754	950.3852	1005.0616	1031.3042	1074.2082	1123.8891	1136.8095	1163.0748	1215.2353	1220.9235	1227.4336	1284.7024	1310.3856	1338.2431	3146.7873	3153.2512	3162.1052	3199.6268	3211.2662
O1C2C3C4C1C2N34	O1[C@H]2[C@H]3[C@H]4[C@@H]1[C@@H]2N34	
InChI=1S/C5H5NO/c7-4-1-2-5(7)3(4)6(1)2/h1-5H	InChI=1S/C5H5NO/c7-4-1-2-5(7)3(4)6(1)2/h1-5H/t1-,2+,3-,4+,5-,6?
