15
gdb 3744	6.53296	2.13953	1.64483	1.9656	64.2	-0.2287	0.0301	0.2589	764.3023	0.126086	-304.72964	-304.72244	-304.721496	-304.761946	24.889	
C	-0.1120983996	 1.3853192414	 0.0849783707	-0.315515
N	 0.0083698898	-0.0511723021	-0.0193333485	 0.064513
C	 0.2924581734	-0.7901185255	-1.1190801601	-0.019052
C	 0.2987912675	-2.1100270216	-0.7231157069	-0.305939
C	 0.0026560121	-2.0732176686	 0.6598753569	 0.357835
C	-0.1226639316	-3.2155672135	 1.6186720065	-0.489841
N	-0.1717139506	-0.8180140656	 1.0762942287	-0.330712
H	 0.0657528741	 1.8276992848	-0.8967495441	 0.135012
H	-1.1137589649	 1.6600491882	 0.4273638235	 0.146833
H	 0.6206459887	 1.7788344547	 0.7950953055	 0.146822
H	 0.4643116588	-0.3262056968	-2.0780349331	 0.124603
H	 0.4888137345	-2.9739645864	-1.3396942865	 0.096765
H	 0.8070786136	-3.7920148044	 1.6800104235	 0.125806
H	-0.3601430015	-2.8393128952	 2.6159698303	 0.137062
H	-0.9138753543	-3.9098604394	 1.3146709737	 0.125806
27.6023	89.0341	177.7015	273.3486	292.3585	422.35	625.9808	629.0522	685.9872	730.5004	764.7401	825.4613	982.621	1017.0832	1030.6748	1064.3964	1066.9394	1097.7806	1152.6442	1236.9489	1324.0568	1396.0554	1404.2732	1440.8052	1457.8929	1473.6593	1484.2841	1492.444	1504.4506	1533.0347	1574.4106	3033.6678	3046.7857	3083.9213	3110.8511	3130.9928	3143.355	3248.7463	3268.6733
CN1C=CC(C)=N1	Cn1ccc(C)n1	
InChI=1S/C5H8N2/c1-5-3-4-7(2)6-5/h3-4H,1-2H3	InChI=1S/C5H8N2/c1-5-3-4-7(2)6-5/h3-4H,1-2H3
