19
gdb 2950	5.54646	1.68651	1.39116	1.2649	66.99	-0.2615	0.0796	0.341	902.797	0.173243	-310.93254	-310.924915	-310.92397	-310.965141	27.846	
O	-0.0685389229	 1.453436189	-0.0967808645	-0.424739
C	 0.0173770765	 0.0397393263	 0.0222586289	-0.100887
C	-1.3888516608	-0.5325630373	-0.0465321679	 0.068534
C	-2.12477372	-0.2732909701	-1.3731692346	-0.192485
C	-3.2639022877	-1.3015967099	-1.3470340179	-0.201923
C	-2.6015526473	-2.5756053864	-0.7765229871	-0.198349
C	-1.4322812025	-2.0740469815	 0.1213893518	-0.226644
H	 0.8221452734	 1.8136326027	-0.060431151	 0.284873
H	 0.6255133099	-0.3918170995	-0.7914976788	 0.078626
H	 0.4934714269	-0.2494607575	 0.9737211455	 0.081145
H	-1.9708642424	-0.0674589802	 0.7598564964	 0.076221
H	-2.4632295192	 0.7601611394	-1.4741384494	 0.104997
H	-1.449862058	-0.4808384874	-2.2155837013	 0.086199
H	-4.0557728372	-0.9532174463	-0.6724653273	 0.09511
H	-3.7250933272	-1.4648029717	-2.3254612832	 0.089181
H	-3.3106563069	-3.1999141914	-0.22591916	 0.094084
H	-2.2109235514	-3.1922884643	-1.5926314666	 0.096985
H	-0.4838684777	-2.5186336612	-0.2026076189	 0.091899
H	-1.5641702653	-2.3572288528	 1.1695170259	 0.097173
29.491	123.7514	191.6745	219.3152	268.9138	405.3687	414.6758	564.3168	621.2129	774.291	820.0949	875.2401	894.7021	910.4369	955.1449	983.8576	1015.0238	1029.1241	1070.2731	1089.7584	1110.6367	1195.6293	1196.9651	1223.0861	1246.6776	1262.4042	1290.5216	1297.9877	1321.1565	1325.5415	1343.8698	1352.4624	1388.8908	1459.2424	1488.6157	1490.9849	1495.4292	1514.372	1521.3347	2948.7925	2977.3341	3009.5109	3022.3787	3031.5859	3032.4214	3048.9231	3072.8625	3084.4199	3097.5567	3106.347	3830.0918
OCC1CCCC1	OCC1CCCC1	
InChI=1S/C6H12O/c7-5-6-3-1-2-4-6/h6-7H,1-5H2	InChI=1S/C6H12O/c7-5-6-3-1-2-4-6/h6-7H,1-5H2
