12
gdb 4381	3.92085	2.03874	1.3413	2.4027	58.71	-0.2486	-0.0273	0.2213	823.7481	0.086941	-414.740464	-414.734501	-414.733557	-414.770508	23.067	
O	 0.1280865567	 1.3015435486	 0.0317176558	-0.405222
C	 0.0861905805	-0.0378364453	 0.0360079815	 0.444519
N	 0.1477401642	-0.6609402069	-1.1360096422	-0.44654
C	 0.1032013862	-1.9981337326	-1.0917151069	 0.459075
O	 0.164200174	-2.6393249156	-2.2666797521	-0.38756
N	 0.0050163842	-2.768229036	-0.0164978582	-0.304635
C	-0.0544676175	-2.1039885759	 1.1440754951	 0.023704
C	-0.0187928266	-0.7243903008	 1.2482528018	-0.231199
H	 0.2004532177	 1.5736157667	-0.8943925174	 0.302668
H	 0.2324160304	-1.9588677353	-2.9494890937	 0.304509
H	-0.1352302341	-2.7183308231	 2.0376871314	 0.123924
H	-0.0677237256	-0.2013029137	 2.1926319348	 0.116758
196.1253	232.6559	355.253	463.3003	519.9144	547.4617	556.2705	565.9182	606.4872	734.648	798.3214	818.7233	840.1118	996.968	1010.4841	1034.9164	1100.642	1206.2254	1236.7102	1312.2829	1378.3912	1403.7012	1486.3172	1521.8339	1626.1284	1664.1845	3163.0893	3236.1981	3760.1796	3789.2881
OC1=NC(O)=NC=C1	Oc1nc(O)ncc1	
InChI=1S/C4H4N2O2/c7-3-1-2-5-4(8)6-3/h1-2H,(H2,5,6,7,8)	InChI=1S/C4H4N2O2/c7-3-1-2-5-4(8)6-3/h1-2H,(H2,5,6,7,8)
