14
gdb 2853	6.1011	1.45162	1.28309	2.5204	55.33	-0.256	-0.0335	0.2226	894.8599	0.112729	-361.683811	-361.67648	-361.675536	-361.71584	25.506	
O	 0.0050621421	 1.4108977666	-0.0392290816	-0.414991
C	 0.0503913211	 0.0412116814	 0.318660082	-0.067943
C	-1.3159140987	-0.5905725073	 0.1755447002	-0.02687
N	-1.7215178159	-0.9365147625	-1.1835527303	-0.341181
C	-1.5579676704	-2.0269109256	-0.1981657277	-0.128091
C	-0.4513022469	-2.990547349	-0.4647433597	 0.170457
O	-0.4026287408	-4.0935170503	 0.0183831419	-0.253803
H	-0.2629430604	 1.4460474799	-0.9645911377	 0.291352
H	 0.7896244823	-0.506721616	-0.2812489076	 0.096194
H	 0.3725904598	 0.0053281841	 1.3642296569	 0.120837
H	-2.0707203557	-0.1539906721	 0.8283208954	 0.107141
H	-2.7092211888	-0.7538776212	-1.3364419771	 0.247437
H	-2.4415114283	-2.4905792216	 0.2340478174	 0.110777
H	 0.3279892806	-2.6162097665	-1.1626933123	 0.088682
71.6087	87.4432	184.735	261.6616	329.0096	398.7977	446.8077	460.5524	547.8538	822.8544	849.3272	917.9648	961.504	990.4708	1022.7634	1052.1053	1073.5543	1131.6975	1179.1914	1224.4793	1240.2597	1270.1393	1355.575	1377.1014	1407.9414	1430.5929	1473.4357	1495.3843	1823.2932	2905.9483	3016.0088	3084.5137	3122.7368	3148.2948	3516.429	3800.277
OCC1NC1C=O	OC[C@H]1N[C@H]1C=O	
InChI=1S/C4H7NO2/c6-1-3-4(2-7)5-3/h1,3-5,7H,2H2	InChI=1S/C4H7NO2/c6-1-3-4(2-7)5-3/h1,3-5,7H,2H2/t3-,4+/m0/s1
