13
gdb 3664	3.73655	3.31088	1.77489	1.2915	55.91	-0.2049	0.0258	0.2306	672.8334	0.102811	-340.654233	-340.647305	-340.646361	-340.685424	24.331	
C	-0.0278653846	 1.523591816	 0.1062750115	-0.513402
C	 0.0169025945	 0.0394297618	-0.0271553853	 0.294881
C	 0.0537091161	-0.7701885809	-1.1471895522	 0.16863
O	 0.0552672887	-0.3021616287	-2.4299029495	-0.450748
C	 0.0866095715	-2.0958043154	-0.6637529496	-0.117516
N	 0.0717109517	-2.1232205247	 0.6685638039	-0.222719
N	 0.0298082933	-0.8301617784	 1.0249271386	-0.247876
H	 0.8402537247	 1.9162483862	 0.6490369432	 0.132386
H	-0.0305387076	 1.973839732	-0.8886846739	 0.1555
H	-0.9286675011	 1.8645119365	 0.6304092071	 0.132347
H	 0.0835134358	-1.0517358847	-3.0310810614	 0.299461
H	 0.1201060626	-3.0184250342	-1.2259943175	 0.100417
H	 0.0114648245	-0.5966212155	 2.0029862849	 0.268638
54.7667	175.9114	236.4686	240.587	335.3665	438.4337	470.2636	651.3826	671.9279	700.291	733.01	836.6686	941.9617	1002.1087	1063.7034	1114.7652	1154.3376	1261.6962	1281.319	1318.8548	1401.4045	1417.9566	1456.1924	1486.3801	1492.2807	1543.5379	1671.5617	3023.9633	3071.2766	3130.0695	3231.434	3672.2659	3846.5717
CC1=C(O)C=NN1	Cc1c(O)cn[nH]1	
InChI=1S/C4H6N2O/c1-3-4(7)2-5-6-3/h2,7H,1H3,(H,5,6)	InChI=1S/C4H6N2O/c1-3-4(7)2-5-6-3/h2,7H,1H3,(H,5,6)
