15
gdb 3000	6.52104	1.77825	1.51661	2.8746	59.13	-0.241	0.0411	0.2821	822.9582	0.125167	-341.842686	-341.834953	-341.834009	-341.875755	26.171	
C	-0.0529303386	 1.3923212131	 0.0650001843	-0.327973
N	 0.3331823293	 0.0038566928	-0.0699593425	-0.319699
C	 0.6982734554	-0.7608668636	 0.9958636708	 0.438317
O	 0.6940302416	-0.3847801685	 2.1519575384	-0.380543
N	 1.1179568713	-2.0589504679	 0.575336875	-0.154224
C	 0.0922393593	-3.1148602332	 0.5284189327	-0.234548
C	 1.1285451274	-3.0960231102	 1.5948893306	-0.205793
H	 0.7102275748	 2.0701365844	-0.3367074099	 0.125264
H	-0.9997869349	 1.5893688316	-0.4492129083	 0.122626
H	-0.1737387584	 1.5965657528	 1.1294062189	 0.168977
H	 0.5109968687	-0.3776806282	-0.9841574279	 0.250541
H	-0.920634945	-2.8399491651	 0.8120540914	 0.130512
H	 0.1663006657	-3.8005568618	-0.3108138663	 0.120808
H	 1.9713496124	-3.7785062647	 1.5446188865	 0.119785
H	 0.8231693009	-2.7908064414	 2.5907793661	 0.14595
31.8266	78.9392	118.7021	215.9645	258.6016	337.0655	485.1199	500.9516	608.1868	782.4733	812.6295	846.172	913.805	951.1878	1044.0591	1099.0444	1118.6516	1135.0216	1155.6925	1170.1805	1181.0781	1187.2697	1237.2345	1329.3618	1443.2114	1491.0606	1493.1073	1499.7646	1516.4478	1560.803	1790.3125	3022.3898	3074.7454	3108.0824	3124.4104	3153.3891	3194.4734	3218.8903	3651.6243
CNC(=O)N1CC1	CNC(=O)N1CC1	
InChI=1S/C4H8N2O/c1-5-4(7)6-2-3-6/h2-3H2,1H3,(H,5,7)	InChI=1S/C4H8N2O/c1-5-4(7)6-2-3-6/h2-3H2,1H3,(H,5,7)
