11
gdb 1946	6.42998	1.91271	1.74179	4.8676	47.88	-0.2766	-0.0503	0.2263	693.6514	0.077251	-380.415966	-380.409727	-380.408783	-380.446784	21.184	
O	-0.3935355663	 0.1605018447	 0.043721374	-0.216229
C	-0.0513226931	 1.2641823772	-0.2793154816	 0.142747
C	 1.2860748699	 1.8817158719	 0.0639472415	 0.038036
C	 1.3115594368	 2.7023863403	 1.3800694315	-0.436706
C	 2.29905305	 1.6158146744	 1.8170379153	 0.46563
O	 2.9507943557	 1.3544734694	 2.7710298208	-0.298125
O	 2.2313455086	 0.9325345128	 0.6249583984	-0.221685
H	-0.7185935394	 1.951538794	-0.8484235366	 0.087569
H	 1.7098078274	 2.3939584354	-0.8056960564	 0.121002
H	 1.7359610657	 3.7047231144	 1.3182979287	 0.157444
H	 0.3839790746	 2.7227022655	 1.9547391144	 0.160318
70.977	117.4138	246.3402	316.1257	499.982	524.5353	681.8269	727.8066	827.1419	896.9694	934.9414	981.3345	1050.5387	1060.7857	1116.8678	1141.8602	1215.6251	1264.4214	1361.8868	1417.3701	1454.6832	1847.8377	1957.0283	2873.5588	3070.4886	3094.4167	3156.6519
O=CC1CC(=O)O1	O=C[C@H]1CC(=O)O1	
InChI=1S/C4H4O3/c5-2-3-1-4(6)7-3/h2-3H,1H2	InChI=1S/C4H4O3/c5-2-3-1-4(6)7-3/h2-3H,1H2/t3-/m1/s1
