11
gdb 246	8.23674	2.10689	1.8256	3.7344	44.18	-0.2502	-0.0278	0.2223	637.4959	0.083052	-322.469844	-322.463011	-322.462067	-322.501174	22.336	
N	-0.0326415745	 1.2880842388	 0.2499740751	-0.514454
C	 0.0159951513	 0.0353029395	-0.2798572996	 0.396855
O	 0.992208316	-0.4083960604	-0.8518943388	-0.35703
C	-1.2523385461	-0.7991658889	-0.1047144915	-0.380257
C	-0.917060946	-2.171816289	 0.4613725475	 0.166044
O	-1.5802118499	-2.7282899614	 1.2959142241	-0.238148
H	 0.7896305801	 1.8659933442	 0.1830994852	 0.267072
H	-0.8258385532	 1.6288195326	 0.763044276	 0.265158
H	-2.0258458686	-0.3321333754	 0.5090983036	 0.118913
H	-1.6584812479	-0.9603580957	-1.1123372529	 0.161269
H	-0.0011102212	-2.6220279543	 0.0288691313	 0.114579
49.6147	99.9595	181.9888	223.6686	409.5653	466.1805	535.6926	590.4167	704.3346	776.9672	880.7913	1023.4213	1053.5311	1105.5003	1186.7448	1253.2064	1376.3501	1404.8534	1443.5108	1618.5343	1794.308	1837.7953	2943.1439	3035.7394	3114.1379	3603.2943	3742.5757
NC(=O)CC=O	NC(=O)CC=O	
InChI=1S/C3H5NO2/c4-3(6)1-2-5/h2H,1H2,(H2,4,6)	InChI=1S/C3H5NO2/c4-3(6)1-2-5/h2H,1H2,(H2,4,6)
