11
gdb 2260	4.20817	3.10697	2.12182	4.028	46.69	-0.2686	-0.0049	0.2637	592.8122	0.077607	-380.372151	-380.366276	-380.365332	-380.401668	21.781	
O	-0.1044351473	 1.4612604166	 0.000592585	-0.434938
C	-0.0202437482	 0.0964588779	 0.0321121636	 0.188549
C	-0.2663775374	-0.8131815184	-1.188185284	-0.351261
C	-1.1039115555	-0.9465830151	 0.0357625848	 0.052237
O	-0.3756441768	-1.7501819222	 1.0061191757	-0.261482
C	 0.5967966168	-0.7579423468	 1.1278234341	 0.403829
O	 1.5009700449	-0.7153527829	 1.892666548	-0.321692
H	 0.6543463587	 1.8085501248	-0.4820560385	 0.304649
H	-0.7223373029	-0.2753183466	-2.0149745372	 0.136465
H	 0.4268145282	-1.6039070687	-1.4566642129	 0.140518
H	-2.1759938006	-0.8765002087	 0.1440060213	 0.143127
178.3041	251.9774	295.0536	355.7028	460.8628	513.5419	650.259	723.2439	766.8726	853.9814	903.7995	928.4497	931.2322	1020.2788	1044.9792	1065.362	1077.9714	1219.5755	1267.9962	1303.8203	1426.7865	1497.6403	1950.8049	3121.7984	3218.9868	3239.9849	3796.3213
OC12CC1OC2=O	O[C@]12C[C@H]1OC2=O	
InChI=1S/C4H4O3/c5-3-4(6)1-2(4)7-3/h2,6H,1H2	InChI=1S/C4H4O3/c5-3-4(6)1-2(4)7-3/h2,6H,1H2/t2-,4-/m1/s1
