14
gdb 1705	4.55384	2.1654	1.9082	1.852	57.83	-0.239	0.0243	0.2632	704.8508	0.115081	-320.732586	-320.725691	-320.724747	-320.763267	25.123	
N	-0.0357092676	 1.5089396617	-0.0026533926	-0.539157
C	 0.0032629867	 0.0524128383	-0.0161136086	 0.154052
C	 0.1809771175	-0.5427529053	 1.4157184359	-0.179405
N	-1.279058149	-0.7614553309	 1.4938762944	-0.302771
C	-1.4257997906	-0.5729862999	 0.034906462	-0.179402
C	 0.8965694927	-0.497166906	-1.0435578929	 0.216805
N	 1.6095849009	-0.8924917742	-1.8646028229	-0.343581
H	 0.8977885927	 1.8806106289	 0.1530749577	 0.241948
H	-0.3377369476	 1.8573705584	-0.9088454064	 0.241949
H	 0.7935218374	-1.4523578722	 1.4153918932	 0.112649
H	 0.5732257967	 0.1633981513	 2.1545135522	 0.118516
H	-1.5536116962	-1.6751953548	 1.833364186	 0.227231
H	-2.2302249475	 0.1106538753	-0.254681306	 0.118518
H	-1.4977882361	-1.4954731504	-0.5536748819	 0.112647
120.0473	181.7757	205.2045	256.7478	376.608	381.5103	533.8545	571.2447	610.8907	685.448	869.2847	913.2097	933.256	936.7224	970.0957	1008.7678	1047.6448	1135.3585	1172.0668	1202.479	1262.6124	1281.9985	1301.5506	1362.1493	1382.8897	1493.3476	1516.0111	1659.1248	2338.676	3020.7105	3027.5506	3079.4587	3079.8881	3484.2437	3548.9859	3563.1444
NC1(CNC1)C#N	NC1(CNC1)C#N	
InChI=1S/C4H7N3/c5-1-4(6)2-7-3-4/h7H,2-3,6H2	InChI=1S/C4H7N3/c5-1-4(6)2-7-3-4/h7H,2-3,6H2
