15
gdb 4481	3.64466	1.70012	1.17149	1.3035	64.06	-0.1706	0.0627	0.2333	974.2079	0.117622	-399.829858	-399.821265	-399.820321	-399.862572	30.92	
C	-0.0049522542	 1.529299884	 0.0339084155	-0.509717
C	 0.0380922924	 0.0329462235	 0.0270248135	 0.201149
C	-1.0892*^-6	-0.7715932354	-1.0791750781	 0.224461
O	-0.1394209174	-0.492684379	-2.4101894008	-0.437713
N	 0.0606302058	-2.0962274253	-0.6726392582	-0.338752
C	 0.1283403291	-2.1289757354	 0.6919974536	 0.384704
O	 0.1785570398	-3.3507466444	 1.2868699997	-0.43827
C	 0.1301229256	-0.8442431956	 1.1682252019	-0.398
H	 0.9337370325	 1.971875278	 0.3909107096	 0.117215
H	-0.1926476105	 1.9124694204	-0.9735842865	 0.117536
H	-0.8026735209	 1.9075538764	 0.6838557871	 0.123088
H	 0.6854217473	-0.1260162515	-2.7464870578	 0.302491
H	-0.0121670071	-2.8964314668	-1.2762937709	 0.265097
H	 0.17402042	-3.2178041296	 2.2394002159	 0.305054
H	 0.185507927	-0.5466768794	 2.2046572557	 0.081655
107.4776	142.1354	191.1203	217.1014	236.5702	246.495	314.5195	326.7604	405.2085	517.69	593.9046	634.948	657.3297	665.8278	721.5931	804.67	987.9887	1037.2183	1063.3875	1155.735	1169.1328	1189.0401	1205.0997	1284.7824	1331.1791	1412.9416	1477.8366	1487.3398	1496.6046	1532.2832	1606.8275	1669.2312	3016.55	3063.1564	3102.5155	3236.3834	3687.9923	3785.0743	3848.293
CC1=C(O)NC(O)=C1	Cc1c(O)[nH]c(O)c1	
InChI=1S/C5H7NO2/c1-3-2-4(7)6-5(3)8/h2,6-8H,1H3	InChI=1S/C5H7NO2/c1-3-2-4(7)6-5(3)8/h2,6-8H,1H3
