18
gdb 3072	9.21543	1.09714	1.04303	2.4705	65.76	-0.2439	0.0789	0.3228	1156.9204	0.159407	-326.939536	-326.931354	-326.93041	-326.972738	28.378	
C	-0.1946107231	 1.4336526358	-0.2164134118	-0.383651
C	 0.074773417	-0.0484615452	-0.0196943944	-0.025614
O	 0.6707873812	-0.5578278337	-1.1953433233	-0.24134
C	 0.9727766238	-1.933688707	-1.1171241914	-0.076325
C	 1.6589632543	-2.3574197539	-2.3865695597	 0.01894
C	 1.4559816033	-3.7345090266	-2.9008592478	-0.247125
N	 0.8798884733	-2.5823870341	-3.6118848608	-0.304487
H	 0.7380751748	 1.9692518751	-0.4143878011	 0.128248
H	-0.8660604836	 1.5917599519	-1.0650256029	 0.127948
H	-0.6579099825	 1.8596399925	 0.6785319733	 0.114019
H	 0.7408512381	-0.210526353	 0.8453320021	 0.084768
H	-0.8641527426	-0.5875167684	 0.195724628	 0.082857
H	 1.6244825553	-2.1356196529	-0.2485905215	 0.089217
H	 0.0504570675	-2.5263007451	-0.9725939421	 0.07412
H	 2.613369735	-1.8667968556	-2.564365119	 0.098629
H	 2.2600232682	-4.2430566338	-3.4247784143	 0.120256
H	 0.7941666699	-4.3941577705	-2.344185088	 0.108729
H	-0.11299443	-2.5022909457	-3.4035065152	 0.230812
57.8692	83.7817	122.1776	154.709	246.3103	299.6347	342.6671	464.0951	498.958	805.8542	821.0544	835.8048	896.3358	936.2591	945.0595	1016.4837	1041.1874	1060.4114	1122.9967	1144.1042	1153.1789	1168.4877	1185.4432	1219.2661	1251.1113	1276.8117	1297.2459	1312.0757	1364.4339	1400.4478	1420.1401	1462.4674	1483.3787	1498.5144	1504.5045	1514.5674	1533.8061	2929.887	2951.2726	2962.701	2972.7336	3045.6093	3105.5872	3119.9128	3122.8238	3136.7683	3190.3826	3492.2413
CCOCC1CN1	CCOC[C@H]1CN1	
InChI=1S/C5H11NO/c1-2-7-4-5-3-6-5/h5-6H,2-4H2,1H3	InChI=1S/C5H11NO/c1-2-7-4-5-3-6-5/h5-6H,2-4H2,1H3/t5-/m1/s1
