12
gdb 1947	9.18247	1.61359	1.40562	2.2008	53.31	-0.2609	-0.0482	0.2127	787.1285	0.089185	-360.530885	-360.524349	-360.523405	-360.562089	22.315	
O	 0.0189337669	-0.0183016192	 0.237558129	-0.317398
C	 0.0436050003	 1.193320626	 0.2181980698	 0.137506
N	 1.1775683596	 1.928459524	 0.1074878201	-0.061178
C	 2.5212640205	 1.454709768	-0.2491868807	-0.281299
C	 2.8478516916	 2.922870119	-0.5938619717	 0.382986
O	 3.8116688436	 3.5054087903	-0.9773491245	-0.256785
C	 1.4005832286	 3.3421264629	-0.2298730823	-0.294468
H	-0.8596884047	 1.8297739514	 0.3056589688	 0.079579
H	 3.0974798696	 1.0286752398	 0.5792385645	 0.154983
H	 2.5440937796	 0.7588697221	-1.0959164153	 0.157856
H	 0.8134826122	 3.7214558321	-1.0748870094	 0.148931
H	 1.3249911423	 4.0416453136	 0.6103599516	 0.149286
45.8527	170.0867	188.2105	313.4018	437.9172	450.1177	531.9548	710.4394	769.5274	801.7649	953.4788	1033.6598	1041.2471	1062.0572	1103.6627	1152.9721	1164.1733	1254.7742	1274.8498	1390.0175	1441.108	1464.0179	1486.7616	1795.1581	1936.839	2936.4704	3028.1667	3042.1025	3079.1277	3087.7805
O=CN1CC(=O)C1	O=CN1CC(=O)C1	
InChI=1S/C4H5NO2/c6-3-5-1-4(7)2-5/h3H,1-2H2	InChI=1S/C4H5NO2/c6-3-5-1-4(7)2-5/h3H,1-2H2
