15
gdb 3464	5.33684	2.56588	2.52653	1.313	61.06	-0.2248	0.0173	0.2421	607.6153	0.126748	-308.477672	-308.472025	-308.471081	-308.506617	23.092	
O	 0.0120509247	 1.4026129512	-0.0887470246	-0.442479
C	 0.0230712187	 0.0016576534	 0.0075346857	 0.168947
C	 0.0231878646	-0.6217467508	 1.4696774509	-0.116828
C	-1.4790960292	-0.1849512741	 1.5230723269	-0.210327
C	-1.4234620573	-0.6075858843	 0.0159770488	-0.081601
C	-1.0533791751	-2.0855799742	 0.1386943732	-0.089794
C	-0.1097686656	-2.0929004795	 1.0889934194	-0.087647
H	 0.9176953363	 1.7171333133	-0.005952993	 0.284496
H	 0.7309723647	-0.4535751607	-0.6975588593	 0.062044
H	 0.7508335322	-0.3294762049	 2.227361278	 0.054345
H	-2.140219053	-0.7572634305	 2.1776271171	 0.088484
H	-1.6069057885	 0.8901730331	 1.6593001866	 0.11042
H	-2.172609985	-0.300679774	-0.7127708598	 0.064481
H	-1.4538641088	-2.8984796647	-0.4501366837	 0.098243
H	 0.4719975713	-2.9151407634	 1.4813846138	 0.097217
250.5387	301.5244	331.2831	457.0229	537.0281	552.3332	698.9775	716.6638	830.0635	845.4566	889.587	909.6005	915.9059	929.483	952.2884	995.5412	1039.7281	1081.3806	1108.5488	1115.5515	1140.7295	1184.6451	1218.9995	1231.7892	1251.2133	1256.0249	1288.6941	1337.8568	1409.8988	1490.3356	1617.5916	3018.5106	3070.0064	3112.0444	3127.0008	3141.442	3217.2747	3243.9706	3819.2051
OC1C2CC1C=C2	O[C@H]1[C@H]2C[C@@H]1C=C2	
InChI=1S/C6H8O/c7-6-4-1-2-5(6)3-4/h1-2,4-7H,3H2	InChI=1S/C6H8O/c7-6-4-1-2-5(6)3-4/h1-2,4-7H,3H2/t4-,5+,6+
