13
gdb 1393	5.94279	1.31105	1.15698	2.7775	59.52	-0.255	-0.0418	0.2133	1001.7488	0.098575	-344.431605	-344.423381	-344.422437	-344.466028	26.937	
C	 0.0519256505	 1.4843811242	-0.0165271087	-0.497652
C	 0.0318699976	 0.0297190899	-0.0005560704	 0.029705
C	 0.0019563309	-1.1737190619	 0.0292768578	 0.097012
C	-0.0205386028	-2.6405134995	 0.0276609067	-0.108141
O	-1.2953006877	-3.1886986016	 0.2281490861	-0.410232
C	 0.5541927691	-3.1106296136	-1.3132934316	 0.144204
O	-0.0863370185	-3.8099414153	-2.0553200586	-0.251517
H	 0.8498697616	 1.877823616	 0.6222813224	 0.153306
H	 0.2110985954	 1.8703255865	-1.0291267445	 0.153174
H	-0.8976351989	 1.8900046255	 0.3488275372	 0.159427
H	 0.6662338663	-3.0063295596	 0.8114441209	 0.121301
H	-1.5163004496	-3.6329006812	-0.6065767694	 0.296437
H	 1.572938646	-2.7539029393	-1.5570463581	 0.112977
15.415	71.2821	116.4368	186.0087	296.9942	315.0218	336.4553	406.632	468.9764	529.8111	705.6197	787.5201	870.0053	1015.8103	1050.161	1054.4928	1117.4669	1170.6218	1240.7452	1326.5755	1388.7139	1413.2197	1432.3921	1475.1196	1476.9219	1821.0188	2365.3938	2949.0766	2963.6946	3030.6852	3093.2177	3094.9177	3683.1089
CC#CC(O)C=O	CC#C[C@@H](O)C=O	
InChI=1S/C5H6O2/c1-2-3-5(7)4-6/h4-5,7H,1H3	InChI=1S/C5H6O2/c1-2-3-5(7)4-6/h4-5,7H,1H3/t5-/m1/s1
