21
gdb 2855	5.99498	1.26714	1.16532	0.1171	75.28	-0.2627	0.0941	0.3568	1119.7971	0.194358	-274.983122	-274.974445	-274.973501	-275.0162	31.674	
C	-0.3742027302	 1.5280195609	 0.2590152319	-0.371608
C	 0.1705957212	 0.1397840597	-0.0983922272	-0.192875
C	 0.9007163796	-0.5098165077	 1.0606563959	 0.006854
C	 0.1561078246	-1.3102273602	 2.1056962192	-0.291998
C	 1.1297672054	-1.9996946002	 1.1762720101	 0.006855
C	 0.6540218238	-3.0046091796	 0.1456105244	-0.192872
C	 0.5406683496	-4.4217201919	 0.7206672995	-0.371612
H	 0.4347194727	 2.2050474104	 0.5555201314	 0.111948
H	-0.8946487738	 1.9829840187	-0.5897413015	 0.10748
H	-1.0778958073	 1.4693417178	 1.0959952564	 0.117166
H	-0.6579278431	-0.4980745116	-0.4262015504	 0.094189
H	 0.8480175467	 0.2246302829	-0.9587707839	 0.094045
H	 1.7152511698	 0.1021321336	 1.4444136155	 0.074918
H	 0.4136379108	-1.18941036	 3.1524189704	 0.104287
H	-0.9019141996	-1.4865528639	 1.9295063553	 0.103475
H	 2.0807573313	-2.2753040582	 1.6289042217	 0.074917
H	-0.3194029583	-2.7003902725	-0.2552255429	 0.094189
H	 1.3455549433	-3.0118694503	-0.7076652653	 0.094045
H	 1.5078167042	-4.7734343811	 1.096909202	 0.111949
H	-0.1675614328	-4.4504880429	 1.5553803565	 0.117166
H	 0.199633532	-5.133822324	-0.0375214691	 0.107481
71.1432	102.4023	134.1734	204.8052	228.4127	258.9433	303.4382	354.7088	435.5313	562.7125	745.5581	778.4103	792.429	809.1768	859.783	931.8974	952.6663	954.8701	1011.6891	1048.1977	1049.7371	1071.9386	1118.5746	1119.3862	1151.8444	1200.3726	1203.0903	1250.3298	1295.7295	1301.9588	1337.5872	1351.7981	1404.6925	1410.0057	1415.4638	1437.2817	1483.0965	1486.3533	1497.782	1497.9845	1499.5123	1507.6217	1510.0016	3014.5353	3019.3007	3030.2415	3030.6378	3052.8468	3064.7852	3097.056	3098.6586	3103.0886	3103.4243	3112.288	3117.142	3124.4061	3201.9703
CCC1CC1CC	CC[C@H]1C[C@H]1CC	
InChI=1S/C7H14/c1-3-6-5-7(6)4-2/h6-7H,3-5H2,1-2H3	InChI=1S/C7H14/c1-3-6-5-7(6)4-2/h6-7H,3-5H2,1-2H3/t6-,7+
