14
gdb 4719	6.69457	1.2691	1.07395	4.602	73.91	-0.2277	-0.021	0.2066	1044.8282	0.108955	-341.648022	-341.640666	-341.639722	-341.679866	26.609	
C	-0.0015200284	 1.5302287407	-0.0056537136	-0.502015
C	 0.0017769834	 0.0307749426	 0.0158953669	 0.290601
C	-0.048353114	-0.8075017779	-1.0835350155	-0.159826
N	-0.0242231879	-2.1010365806	-0.6532686206	-0.313624
C	 0.0406588068	-2.1219606535	 0.7242071307	 0.236847
C	 0.0577201923	-0.8063098527	 1.1585059308	-0.327584
C	 0.0776627983	-3.3319792536	 1.4481470251	 0.205259
N	 0.1075803163	-4.334073639	 2.0313063018	-0.350648
H	 0.9105653857	 1.9421812794	 0.4402287009	 0.134072
H	-0.0693959837	 1.9089976094	-1.0292234158	 0.124218
H	-0.8483298591	 1.9394317822	 0.5561264946	 0.133916
H	-0.0990656345	-0.5734681028	-2.1354059185	 0.131805
H	-0.0502576497	-2.9198343314	-1.2363370234	 0.278923
H	 0.1055471547	-0.4953352128	 2.1906871766	 0.118056
84.7066	132.1967	151.7861	279.5308	324.0475	473.1164	522.9857	524.9534	575.9223	632.7253	675.405	696.72	772.3286	841.9887	991.1553	995.0655	1006.4889	1065.8505	1144.2876	1170.8816	1267.0193	1334.6992	1408.5202	1421.4924	1452.9311	1484.0077	1502.3399	1514.4022	1618.2959	2333.6498	3032.2698	3084.4754	3111.325	3257.4047	3259.5654	3681.3815
CC1=CNC(=C1)C#N	Cc1c[nH]c(c1)C#N	
InChI=1S/C6H6N2/c1-5-2-6(3-7)8-4-5/h2,4,8H,1H3	InChI=1S/C6H6N2/c1-5-2-6(3-7)8-4-5/h2,4,8H,1H3
