15
gdb 2184	3.37617	2.7709	1.95842	2.1808	57.04	-0.25	-0.0271	0.2229	700.6485	0.123459	-345.659998	-345.652546	-345.651602	-345.691388	26.758	
C	-0.2013863712	 1.4892136988	 0.0920338873	-0.390821
C	-0.0076212456	-0.0190315722	-0.0016608347	-0.055464
C	 1.217290904	-0.4512113202	-0.8782076593	-0.341315
C	 2.0009391004	-0.5204815065	 0.4377609053	 0.340175
O	 3.1199838124	-0.2398699567	 0.7685819224	-0.308163
C	 0.7187435031	-0.6349937234	 1.2606067318	 0.064208
O	 0.6767312895	-0.0044163676	 2.503603397	-0.428807
H	 0.7458832137	 2.0040631316	 0.2896235152	 0.119368
H	-0.6075789824	 1.8890165507	-0.8420558718	 0.118642
H	-0.8869284803	 1.7410047001	 0.905620378	 0.13448
H	-0.9448993907	-0.5197496866	-0.2510178734	 0.083501
H	 1.0889736514	-1.4338819657	-1.3407344795	 0.129708
H	 1.5923168668	 0.25377768	-1.6228584773	 0.130389
H	 0.4169482155	-1.6861029878	 1.3665456187	 0.106074
H	 1.5241897237	 0.4419741954	 2.6243409003	 0.298026
91.2709	159.5744	209.1471	219.0307	247.3109	357.6385	408.1529	524.1329	602.4033	718.1066	750.856	815.0163	856.8989	886.6196	988.2136	1044.8855	1074.5898	1092.9004	1134.0225	1170.398	1188.0291	1228.3729	1272.5382	1326.3635	1363.403	1405.3544	1416.3262	1447.4533	1494.1921	1496.0038	1871.0194	3017.0508	3034.5865	3066.8054	3085.1359	3104.3006	3118.8081	3128.9076	3776.448
CC1CC(=O)C1O	C[C@H]1CC(=O)[C@H]1O	
InChI=1S/C5H8O2/c1-3-2-4(6)5(3)7/h3,5,7H,2H2,1H3	InChI=1S/C5H8O2/c1-3-2-4(6)5(3)7/h3,5,7H,2H2,1H3/t3-,5-/m0/s1
