14
gdb 1738	5.28946	1.81851	1.63939	4.7065	57.42	-0.2836	0.0265	0.31	775.2959	0.112148	-324.574822	-324.567565	-324.566621	-324.606274	25.744	
C	-0.0012274791	 1.5846734264	-0.230483461	-0.466266
C	-0.0493713669	 0.0795118571	-0.109698871	 0.417063
C	-1.368192518	-0.5212404121	 0.3794396421	-0.398351
C	-1.7938710561	 0.0184249336	 1.6712810474	 0.27145
N	-2.1288866979	 0.4589191784	 2.6853718391	-0.306991
C	 0.820068138	-0.772613147	-0.9333143941	-0.229945
O	 1.111333275	-0.5376872714	 0.4477184331	-0.258083
H	 0.9847287068	 1.9036109321	-0.5748176419	 0.135274
H	-0.7542493092	 1.9429961672	-0.940585435	 0.125536
H	-0.1987541777	 2.0545583884	 0.7378079464	 0.156228
H	-2.1601241107	-0.3273315662	-0.3539472318	 0.155405
H	-1.2599832974	-1.6061389923	 0.4695712335	 0.16043
H	 0.5150073873	-1.7886905794	-1.1814117468	 0.116198
H	 1.504477746	-0.3096149447	-1.6423699499	 0.122053
66.9217	144.7339	196.8013	333.082	351.0685	383.7011	391.6307	405.0584	550.675	742.5884	843.809	881.7854	921.2079	932.1459	968.6713	1045.227	1106.8174	1135.6254	1167.0777	1221.6989	1278.2086	1317.3522	1404.1065	1426.648	1448.25	1483.4701	1497.6276	1535.2309	2364.4424	3041.3398	3045.963	3082.9741	3097.7904	3109.3893	3134.2062	3169.9177
CC1(CC#N)CO1	C[C@@]1(CC#N)CO1	
InChI=1S/C5H7NO/c1-5(2-3-6)4-7-5/h2,4H2,1H3	InChI=1S/C5H7NO/c1-5(2-3-6)4-7-5/h2,4H2,1H3/t5-/m1/s1
