16
gdb 4876	4.69364	1.41678	1.15969	3.4645	69.27	-0.1874	0.0338	0.2211	1035.8209	0.130856	-379.955582	-379.947544	-379.9466	-379.988395	29.077	
C	-0.1867443805	 1.5466757635	-0.0849009761	-0.372772
C	 0.1034353588	 0.0393915477	 0.0236671121	-0.296229
C	 0.8644723638	-0.500075782	-1.130946831	 0.352821
C	 2.065150349	-1.0754122886	-1.2704352458	-0.203025
N	 2.2319675614	-1.3611585988	-2.6256353251	-0.329351
C	 1.1177024157	-0.9597102133	-3.3277398065	 0.459229
N	 0.9254309892	-1.0695033981	-4.5760355712	-0.608625
O	 0.2626749541	-0.4171125571	-2.3864674762	-0.251173
H	 0.7434325918	 2.1217189112	-0.1183568673	 0.121678
H	-0.7518740529	 1.7664194415	-0.9944862293	 0.137129
H	-0.7726640148	 1.8886345511	 0.7731614291	 0.115422
H	 0.6772751485	-0.172782213	 0.9320657877	 0.113809
H	-0.8462464852	-0.5040732899	 0.1183036863	 0.12009
H	 2.8150943853	-1.3073816888	-0.5341473738	 0.144893
H	 3.0136206558	-1.8091643074	-3.0664105696	 0.274092
H	 0.0172721798	-0.6935191881	-4.8333915734	 0.222012
69.6353	110.1956	135.8307	194.2377	284.0391	330.2645	415.2656	482.1526	595.1533	650.0589	708.8585	732.7234	756.855	764.1394	787.6877	941.4302	947.0918	978.5775	1040.3209	1074.9627	1091.3595	1101.209	1214.3718	1262.7612	1286.5262	1363.4452	1382.1938	1404.9594	1410.9116	1471.6851	1495.376	1507.8408	1726.3095	1793.2299	3018.7063	3043.9079	3074.6401	3115.4997	3125.3042	3288.1568	3545.5009	3715.5804
CCC1=CNC(=N)O1	CCC1=CN[C@@H]([NH])O1	
InChI=1S/C5H8N2O/c1-2-4-3-7-5(6)8-4/h3H,2H2,1H3,(H2,6,7)	InChI=1S/C5H9N2O/c1-2-4-3-7-5(6)8-4/h3,5-7H,2H2,1H3/t5-/m1/s1
