13
gdb 4887	5.05476	1.4981	1.19146	5.6921	56.97	-0.213	0.0312	0.2442	951.269	0.095765	-435.77278	-435.765584	-435.76464	-435.804667	25.625	
C	-0.1186613917	 1.4361023526	 0.1396899094	-0.340225
N	-0.0929375843	 0.0648733942	-0.3785292183	-0.38885
C	-1.1636090618	-0.7522356182	-0.113062818	 0.376292
C	-1.311950295	-2.024189275	 0.2709316567	-0.163947
O	-2.6730337519	-2.3402650146	 0.2214480019	-0.212296
C	-3.3394700814	-1.2215733904	-0.1505555808	 0.508482
O	-4.515725649	-1.0990133516	-0.2700503003	-0.373998
O	-2.4136208619	-0.2246894617	-0.3714690225	-0.231994
H	 0.7380912384	 1.9763485748	-0.2677642105	 0.135878
H	-1.0296121641	 1.9289263475	-0.2031689651	 0.1662
H	-0.0850262215	 1.4861415224	 1.2373334688	 0.123186
H	 0.7861518729	-0.4082867578	-0.2215654141	 0.250238
H	-0.6323090788	-2.8023311321	 0.5626041926	 0.151034
81.004	141.2947	175.8914	226.358	352.9439	413.832	558.0053	597.2196	622.209	661.6971	701.898	771.9033	779.8593	934.9803	963.4339	1052.1013	1084.3481	1120.2363	1148.9323	1162.9599	1299.8997	1370.0906	1459.1778	1476.2554	1494.0114	1517.0075	1754.552	1940.519	3003.9661	3107.0812	3150.2767	3317.8958	3594.1375
CNC1=COC(=O)O1	CNc1coc(=O)o1	
InChI=1S/C4H5NO3/c1-5-3-2-7-4(6)8-3/h2,5H,1H3	InChI=1S/C4H5NO3/c1-5-3-2-7-4(6)8-3/h2,5H,1H3
