11
gdb 2619	13.06288	0.95567	0.89539	3.2314	62.92	-0.2698	-0.0651	0.2048	1169.9158	0.075275	-306.054267	-306.046561	-306.045617	-306.087304	25.159	
O	-0.063977698	-0.0978027139	 0.0021050399	-0.226589
C	-0.0134523345	 1.1104039219	 0.0074032128	 0.026404
C	 1.207944926	 1.8753957265	 0.0001708444	 0.007569
C	 2.2099232439	 2.5472820763	-0.0055320707	 0.138872
C	 3.4408076251	 3.3346902022	-0.012708257	-0.497206
C	 3.220288353	 4.7809346093	-0.0029169541	 0.310882
C	 3.0511859291	 5.9688227874	 0.0049720002	-0.428648
H	-0.9333849413	 1.7292016686	 0.0182139042	 0.103696
H	 4.0508466741	 3.0450109205	 0.8544177583	 0.178061
H	 4.0346056933	 3.0543845926	-0.8940747335	 0.178064
H	 2.8984924193	 7.0198734286	 0.0118421954	 0.208895
33.84	76.5082	167.8463	171.5837	315.2149	328.8504	391.7505	502.0077	622.5102	634.8519	663.8691	826.6574	922.5397	952.3968	1021.8225	1151.9514	1226.742	1332.4457	1421.5229	1438.5538	1769.9748	2251.6119	2340.5346	2923.5667	3010.9405	3036.4049	3505.5665
O=CC#CCC#C	O=CC#CCC#C	
InChI=1S/C6H4O/c1-2-3-4-5-6-7/h1,6H,3H2	InChI=1S/C6H4O/c1-2-3-4-5-6-7/h1,6H,3H2
