20
gdb 274	6.59674	1.69478	1.45846	0.0898	67.45	-0.3042	0.0859	0.3901	906.7075	0.188151	-236.917664	-236.909314	-236.90837	-236.949789	29.991	
C	-0.0173517587	 1.604163378	 0.0776843933	-0.378043
C	 0.0137452668	 0.0760507483	-0.0218915226	-0.172908
C	-1.3871266182	-0.5470512585	-0.0319811134	-0.143121
C	-1.4247795598	-2.086225008	-0.0393961555	 0.045082
C	-2.8614315699	-2.5896020434	 0.1570580024	-0.387628
C	-0.8165716675	-2.6843099956	-1.316337183	-0.379805
H	 0.9926255731	 2.0262060556	 0.0836080517	 0.109131
H	-0.5569954628	 2.0449455642	-0.768113015	 0.112651
H	-0.520486679	 1.9315703095	 0.9945343895	 0.11217
H	 0.5600444487	-0.2137082173	-0.9273574667	 0.097463
H	 0.5848954991	-0.3336200267	 0.8222726615	 0.091851
H	-1.9339315212	-0.189482391	 0.8515671048	 0.085366
H	-1.9459499815	-0.1716513099	-0.9021888246	 0.08607
H	-0.8268260784	-2.4369097399	 0.8149972304	 0.06806
H	-3.5056928252	-2.2661116425	-0.6695649242	 0.109833
H	-2.8988082924	-3.683453301	 0.1960387275	 0.106849
H	-3.2962510899	-2.2051057434	 1.0858203202	 0.107458
H	 0.2343161552	-2.40821518	-1.4420496935	 0.112758
H	-0.8697860366	-3.7780818748	-1.3000758572	 0.107896
H	-1.3608382619	-2.3403361934	-2.2046313559	 0.108866
80.1393	113.9141	179.2085	226.1774	247.4936	256.2752	317.9268	377.3397	439.224	443.3827	744.5146	816.4804	864.1517	900.0187	927.6744	962.9052	970.3747	1025.837	1049.6149	1081.7732	1167.6986	1194.6092	1205.7712	1272.0358	1303.2034	1330.6708	1359.0099	1371.4476	1396.3759	1399.335	1413.8178	1421.698	1478.1713	1489.0671	1492.8794	1496.4934	1500.3761	1505.4369	1509.1313	1513.1757	2989.7446	2997.7529	3016.5428	3021.8459	3027.087	3028.3271	3029.4415	3057.3269	3085.4415	3091.3633	3094.7945	3097.2238	3099.6336	3107.1861
CCCC(C)C	CCCC(C)C	
InChI=1S/C6H14/c1-4-5-6(2)3/h6H,4-5H2,1-3H3	InChI=1S/C6H14/c1-4-5-6(2)3/h6H,4-5H2,1-3H3
