15
gdb 2216	3.652	3.26886	2.285	2.4157	56.28	-0.2405	0.0584	0.2989	628.8657	0.124815	-345.612787	-345.606231	-345.605287	-345.643243	24.414	
O	 0.0618811364	 1.4339596093	 0.1969672106	-0.474003
C	 0.0140097279	 0.0551920948	-0.0055194245	 0.346908
C	 0.3713560185	-0.5075262087	-1.4113210696	-0.299391
C	-0.9939952992	-1.2689872551	-1.447425771	-0.225081
C	-1.3280839866	-0.7276714408	-0.0386928569	 0.080609
O	-0.8742231887	-1.6088739769	 1.0100417195	-0.290825
C	 0.364216289	-0.8781825396	 1.1737836292	-0.124375
H	 0.9412602267	 1.7472518551	-0.0415617697	 0.28229
H	 0.4340217918	 0.2876536167	-2.1582855289	 0.105887
H	 1.2761048674	-1.1186868325	-1.4659375659	 0.099714
H	-1.6673212803	-0.9110676714	-2.2300768824	 0.106112
H	-0.9392660369	-2.3580688756	-1.4902950128	 0.114185
H	-2.3137338369	-0.3009628749	 0.1602654609	 0.082008
H	 1.2471476004	-1.5222090379	 1.0722157202	 0.092904
H	 0.3976163604	-0.3499031425	 2.1351364912	 0.103059
89.3695	152.4912	272.3176	366.1849	390.6808	414.0838	633.7817	661.1378	737.1454	852.8926	875.3677	920.8483	925.911	947.0552	1002.0656	1027.0241	1064.6099	1109.0029	1144.1416	1177.9531	1191.3271	1224.8371	1245.1054	1260.0179	1283.5963	1307.6377	1332.3062	1400.4435	1459.8633	1480.251	1515.5506	3006.2054	3056.768	3058.3356	3068.0745	3089.2167	3109.842	3133.4809	3800.5165
OC12CCC1OC2	O[C@]12CC[C@H]1OC2	
InChI=1S/C5H8O2/c6-5-2-1-4(5)7-3-5/h4,6H,1-3H2	InChI=1S/C5H8O2/c6-5-2-1-4(5)7-3-5/h4,6H,1-3H2/t4-,5+/m1/s1
