13
gdb 4316	3.93756	2.02622	1.33821	5.7651	66.18	-0.217	-0.0372	0.1797	847.7575	0.097315	-394.821424	-394.81461	-394.813666	-394.852382	25.805	
N	-0.0143918233	 1.3422664394	 0.0973156565	-0.556275
C	-0.0058800462	-0.013801326	 0.0335018763	 0.40951
N	-1.1518605857	-0.6353642397	 0.0216429738	-0.354471
C	-1.1971682702	-1.9977380377	-6.8571*^-6	 0.422062
N	-2.2645393948	-2.6774072178	 0.0000494887	-0.535907
O	 0.0510929436	-2.7190221228	-0.03199627	-0.233941
C	 1.1999026383	-2.0443363865	-0.0235842496	 0.106292
C	 1.2668995622	-0.7038697105	 0.0104645383	-0.260464
H	 0.8171330711	 1.8677433962	-0.1059082712	 0.263977
H	-0.9056126713	 1.7991786213	-0.012775232	 0.271691
H	-2.0483357305	-3.6722781589	-0.022437848	 0.219518
H	 2.0635548263	-2.70124622	-0.0466474882	 0.140417
H	 2.2155769702	-0.185937237	 0.0247522526	 0.107591
99.8509	199.7047	260.2158	350.8436	381.7756	506.8614	519.8583	550.6524	592.8235	714.629	718.3069	753.9357	778.0578	821.8909	824.4073	965.9996	968.3802	1015.0916	1097.1661	1193.0322	1240.2795	1315.9392	1375.6194	1496.0617	1588.1408	1632.8032	1711.5962	1761.6849	3190.1301	3229.6588	3516.943	3604.8213	3739.2263
NC1=NC(=N)OC=C1	NC1=CCOC(=N1)[NH]	
InChI=1S/C4H5N3O/c5-3-1-2-8-4(6)7-3/h1-2H,(H3,5,6,7)	InChI=1S/C4H6N3O/c5-3-1-2-8-4(6)7-3/h1,6H,2H2,(H2,5,7)
