19
gdb 1929	3.34607	2.80179	2.09115	0.3154	71.88	-0.2351	0.0889	0.3241	747.3911	0.171348	-273.769835	-273.762367	-273.761423	-273.800602	28.873	
C	 0.0217495978	 1.5492234445	 0.0105841727	-0.495553
C	-0.0190493315	 0.0486612487	 0.0594736341	 0.328071
C	 1.1499731399	-0.8204443076	-0.3307270401	-0.369532
C	 0.5904658493	-0.9468380159	 1.0640172789	 0.32802
C	 1.4116668744	-0.7207529471	 2.3010493981	-0.495529
C	-0.6817163996	-1.8047673209	 1.0033178103	-0.274418
C	-1.3001506164	-0.7945549451	-0.0167379778	-0.274455
H	 1.0065760579	 1.9325192756	 0.2985905572	 0.114198
H	-0.1897791411	 1.9207617974	-1.0001009259	 0.117736
H	-0.719661861	 1.9931259803	 0.6856337631	 0.11185
H	 1.0305831464	-1.6248623135	-1.0554383533	 0.09481
H	 2.1042301036	-0.30513215	-0.3992768461	 0.100749
H	 2.1353790458	 0.0890068054	 2.1586518993	 0.114194
H	 0.7811916665	-0.4579075251	 3.1588620427	 0.111844
H	 1.9783756394	-1.6203033442	 2.5729355163	 0.117736
H	-0.5503263015	-2.8377904787	 0.6620601089	 0.089196
H	-1.2285044709	-1.8215022217	 1.9502122057	 0.095945
H	-2.1733341617	-0.2784118761	 0.391911126	 0.095917
H	-1.5617626574	-1.1852041659	-1.00660598	 0.08922
175.0596	196.3979	200.5038	209.5819	321.9202	333.8269	434.1923	448.3608	571.8426	677.6817	722.0618	786.2204	831.1995	914.9127	938.8765	948.8719	980.9565	1002.4716	1021.7089	1061.4517	1064.5668	1117.3317	1154.109	1202.3718	1230.3239	1240.9318	1242.0628	1271.64	1341.351	1396.2276	1412.3488	1429.1434	1479.6436	1486.1781	1486.1956	1489.3864	1496.4235	1501.8574	1522.2263	3013.8776	3015.9269	3031.3895	3039.9072	3070.0645	3071.0787	3080.0089	3088.2327	3088.495	3091.5452	3099.5709	3180.5505
CC12CC1(C)CC2	C[C@@]12C[C@]1(C)CC2	
InChI=1S/C7H12/c1-6-3-4-7(6,2)5-6/h3-5H2,1-2H3	InChI=1S/C7H12/c1-6-3-4-7(6,2)5-6/h3-5H2,1-2H3/t6-,7+
