12
gdb 1605	4.39025	2.08156	1.5197	1.6656	52.44	-0.2949	-0.1024	0.1925	759.8649	0.087782	-360.531172	-360.523616	-360.522672	-360.563033	25.743	
C	-0.0507035862	 1.5742831752	-0.102263075	-0.413912
C	 0.0350230206	 0.0581978516	 0.1304956861	 0.052168
O	 0.6851911749	-0.2270445016	 1.334783077	-0.429539
C	-1.3415648258	-0.5873172723	 0.1267949434	 0.275982
O	-1.7565899816	-1.2314628636	 1.060868881	-0.290371
C	-2.149719	-0.4076449436	-1.0886751086	 0.251941
N	-2.7661199247	-0.2596531332	-2.0556942737	-0.294904
H	 0.9609324319	 1.9849097455	-0.0826951373	 0.149725
H	-0.5040072004	 1.8051943191	-1.0700977563	 0.14327
H	-0.6320618377	 2.0492974571	 0.692700836	 0.138697
H	 0.5792585278	-0.3925237128	-0.719978766	 0.115925
H	 0.0995968512	-0.8095970716	 1.8413276735	 0.301017
65.9211	143.91	198.7427	239.3985	307.4148	330.3712	357.3237	429.1643	510.1258	586.3615	706.4678	789.5168	928.578	1034.0315	1089.8601	1092.9047	1194.7677	1274.3949	1345.8146	1401.1538	1418.8787	1487.3774	1496.6148	1779.8517	2340.052	2942.689	3050.7378	3131.3532	3138.7578	3719.3605
CC(O)C(=O)C#N	C[C@@H](O)C(=O)C#N	
InChI=1S/C4H5NO2/c1-3(6)4(7)2-5/h3,6H,1H3	InChI=1S/C4H5NO2/c1-3(6)4(7)2-5/h3,6H,1H3/t3-/m1/s1
