15
gdb 4148	3.32006	1.53024	1.11568	0.9885	71.35	-0.2476	0.0006	0.2482	1034.6524	0.116847	-362.572085	-362.564007	-362.563063	-362.604856	29.646	
O	-0.136271401	 1.3623559656	 0.035831893	-0.390232
N	 0.0240588667	-0.0336992563	 0.0723559879	-0.230201
C	-1.0935553287	-0.6197542949	 0.0069527459	 0.418817
C	-2.541142358	-0.2183282811	-0.1763234316	-0.320648
C	-2.8569970569	-1.7125868744	-0.4901735626	-0.230974
C	-1.4031304396	-2.116877897	-0.0301204833	-0.260714
C	-0.620295819	-2.9813283347	-0.888944534	 0.329409
C	 0.0102679248	-3.7006815601	-1.6167037115	-0.448416
H	 0.7758110443	 1.6709198039	 0.0661834591	 0.309089
H	-3.0024120093	 0.1547604949	 0.7437160268	 0.128812
H	-2.7283429034	 0.5086752204	-0.9699155214	 0.134706
H	-3.6682842076	-2.1731423275	 0.0742950083	 0.113081
H	-3.0052457451	-1.8990534811	-1.5541704728	 0.126832
H	-1.4236598544	-2.5221506606	 0.989555848	 0.123327
H	 0.5774219373	-4.3309353771	-2.2557599018	 0.197112
68.0647	104.9142	174.1528	225.5782	294.1321	362.3006	422.3446	485.4173	495.062	602.1283	622.5271	636.5901	682.0605	763.2571	796.9296	912.9373	937.1616	985.4061	1031.6393	1066.0923	1073.313	1155.782	1206.0862	1221.0919	1241.4987	1265.8613	1327.2402	1403.6719	1460.614	1489.7836	1785.2047	2239.0457	3024.7904	3057.9637	3089.3067	3108.8273	3149.9815	3505.18	3816.182
ON=C1CCC1C#C	ON=C1CC[C@H]1C#C	
InChI=1S/C6H7NO/c1-2-5-3-4-6(5)7-8/h1,5,8H,3-4H2	InChI=1S/C6H7NO/c1-2-5-3-4-6(5)7-8/h1,5,8H,3-4H2/t5-/m1/s1
