14
gdb 2477	5.32977	2.72037	2.49161	3.7451	56.91	-0.2382	0.0216	0.2598	589.9018	0.116505	-324.585402	-324.580166	-324.579222	-324.614145	21.174	
O	-0.0028922709	 0.034409465	 0.0666725235	-0.372333
C	 0.0209216436	 1.2350370374	-0.0248995857	 0.417657
N	-1.0614581092	 2.1159838149	-0.1258688722	-0.316084
C	-0.4176025963	 3.4426874735	 0.0232416841	-0.000235
C	 0.7209642285	 3.2989651792	-1.0197936819	-0.210933
C	 1.2039091857	 2.2180831933	 0.0024179198	-0.149153
C	 0.667437363	 3.1948915862	 1.114472118	-0.227371
H	-1.913582906	 1.8925682372	 0.3682429898	 0.247876
H	-1.1203559616	 4.2735852491	 0.0361608922	 0.083594
H	 0.4390880782	 2.9740579643	-2.023052524	 0.113716
H	 1.3849757006	 4.1648561179	-1.0541197073	 0.107824
H	 2.1990965321	 1.7819562043	 0.0071317798	 0.090631
H	 1.3304681884	 4.0469932462	 1.28176358	 0.10808
H	 0.3427574238	 2.7637043717	 2.0649813239	 0.106731
203.0751	418.0523	477.8853	489.4485	519.389	659.2933	748.5444	790.8215	834.0977	849.5273	887.6294	896.9998	971.8554	1002.0814	1027.4511	1056.9448	1067.3828	1104.3096	1112.58	1185.694	1220.2003	1233.8153	1244.651	1267.8983	1323.114	1373.7859	1481.0116	1516.4932	1867.9947	3060.066	3072.8687	3124.9197	3138.2474	3139.5632	3162.4182	3609.8247
O=C1NC2CC1C2	O=C1N[C@@H]2C[C@H]1C2	
InChI=1S/C5H7NO/c7-5-3-1-4(2-3)6-5/h3-4H,1-2H2,(H,6,7)	InChI=1S/C5H7NO/c7-5-3-1-4(2-3)6-5/h3-4H,1-2H2,(H,6,7)/t3-,4+
