18
gdb 617	6.69746	2.14548	1.86009	0.117	64.01	-0.263	0.094	0.357	743.8195	0.165775	-235.694798	-235.687424	-235.686479	-235.72575	26.871	
C	 0.2232579389	 1.5464153212	 0.1109209809	-0.369386
C	-0.187419142	 0.0856265082	-0.1108294086	-0.193141
C	 0.5311974772	-0.5448780532	-1.2870597664	 0.030253
C	 1.9025630583	-1.161917718	-1.1252132274	-0.291072
C	 0.7151170751	-2.0375166581	-1.4519202828	-0.002041
C	 0.1913080959	-3.0510664868	-0.4567423075	-0.402791
H	 1.2973209944	 1.6258440166	 0.3088684884	 0.117177
H	 0.0051560631	 2.1561037582	-0.7730187346	 0.111849
H	-0.3108712533	 1.986770558	 0.9589012372	 0.107394
H	 0.0124430163	-0.486839434	 0.8018636817	 0.09331
H	-1.2726481975	 0.0328724631	-0.2715549746	 0.093803
H	 0.3773141226	-0.0030559792	-2.2186338076	 0.074606
H	 2.6577939354	-0.9872073183	-1.884029658	 0.104459
H	 2.2992545979	-1.2260648519	-0.1154455331	 0.103579
H	 0.6686599303	-2.383948905	-2.4818390386	 0.078402
H	 0.2926122293	-2.7027640518	 0.5749105611	 0.115041
H	-0.8680449007	-3.2735047314	-0.6292759263	 0.113965
H	 0.7443554388	-3.9936690575	-0.5372907538	 0.114593
85.3348	153.6425	208.6883	224.1732	274.8113	345.5266	419.7562	512.2036	747.2988	785.2584	800.4414	855.5643	904.9236	932.8867	980.5421	1019.0267	1048.3281	1073.0063	1110.3957	1122.7197	1152.8351	1199.003	1201.59	1247.9836	1294.1227	1338.6202	1393.8606	1407.8468	1417.3515	1430.0613	1482.2006	1493.8115	1496.6053	1498.2389	1505.4501	1509.1238	3016.1089	3028.1028	3030.3145	3057.4935	3083.7165	3096.8646	3103.437	3104.5724	3116.166	3119.8488	3133.2508	3203.4889
CCC1CC1C	CC[C@H]1C[C@H]1C	
InChI=1S/C6H12/c1-3-6-4-5(6)2/h5-6H,3-4H2,1-2H3	InChI=1S/C6H12/c1-3-6-4-5(6)2/h5-6H,3-4H2,1-2H3/t5-,6+/m1/s1
