10
gdb 3874	7.72859	2.25869	1.74946	4.386	44.51	-0.2382	0.0135	0.2517	640.5731	0.068317	-392.642251	-392.636486	-392.635542	-392.671509	21.411	
N	-0.0386749154	 1.3084854124	 0.1538537083	-0.588495
C	-0.0474842625	-0.0409665386	 0.0362274728	 0.524046
N	-1.0892369516	-0.8274533922	-0.0392479397	-0.429107
C	-0.4792971285	-2.0546603637	-0.077842832	 0.450317
O	-1.1818433755	-3.1847624471	-0.1562540973	-0.401874
N	 0.8280489946	-2.0718949252	-0.036508442	-0.221764
O	 1.1251162208	-0.6725673963	 0.0417554217	-0.21211
H	 0.8204112169	 1.7803703099	-0.0782625694	 0.279957
H	-0.8907915169	 1.7778861063	-0.1051015728	 0.282254
H	-2.1132722618	-2.9338666255	-0.1672310195	 0.316777
222.9369	323.8902	366.9337	390.3258	407.0589	444.3208	509.8393	668.8478	717.4519	785.6432	795.9609	907.506	1032.6707	1052.9259	1134.8616	1226.1148	1405.715	1478.7853	1598.989	1675.6031	1695.5913	3605.6779	3722.8056	3817.4053
NC1=NC(O)=NO1	Nc1nc(O)no1	
InChI=1S/C2H3N3O2/c3-1-4-2(6)5-7-1/h(H3,3,4,5,6)	InChI=1S/C2H3N3O2/c3-1-4-2(6)5-7-1/h(H3,3,4,5,6)
