17
gdb 1934	3.51746	2.94597	2.07811	1.8352	64.63	-0.237	0.0953	0.3324	712.6813	0.14687	-309.700336	-309.693007	-309.692063	-309.731059	27.702	
C	-0.1019789044	 1.5290589896	 0.0634939003	-0.499325
C	 0.1732288536	 0.0619255821	 0.0026869706	 0.355331
C	 0.6611251103	-0.7710492176	-1.1967028556	-0.278223
C	 1.2788876437	-1.7916330805	-0.1798624524	-0.27822
C	 0.756747035	-0.9021248426	 0.9632019405	 0.355338
C	 1.2888645138	-0.7687153892	 2.3527991601	-0.499329
O	-0.6681813716	-0.8162589481	 0.7737614939	-0.326718
H	 0.7346748019	 2.1001802381	-0.3522638544	 0.120795
H	-0.9989086355	 1.7791321079	-0.5151321444	 0.130324
H	-0.2678662251	 1.8496147636	 1.0956268537	 0.130179
H	-0.1315951321	-1.1441590474	-1.8499600133	 0.104772
H	 1.4203980708	-0.2639616316	-1.7979781153	 0.099501
H	 0.8749243405	-2.8070122722	-0.193199625	 0.104771
H	 2.3699592285	-1.8327093793	-0.2349907798	 0.099502
H	 2.3712618852	-0.6034537955	 2.3415455714	 0.120797
H	 0.811183526	 0.0666541723	 2.8719842852	 0.13018
H	 1.0948843994	-1.6797682597	 2.9308837846	 0.130323
179.0666	190.0217	193.1305	210.8805	310.1551	337.6912	449.8921	497.6444	600.0775	687.2116	722.9292	774.7171	864.8345	877.6794	936.0096	957.8831	982.2614	1040.9619	1105.1037	1134.3674	1181.511	1199.9912	1217.8436	1219.183	1241.9926	1310.5537	1407.8499	1410.2753	1462.826	1463.3482	1476.5722	1482.2014	1487.9825	1493.7925	1527.5278	3030.4699	3031.9233	3056.5376	3064.5489	3091.731	3092.4172	3107.1608	3115.9589	3117.9149	3124.0072
CC12CCC1(C)O2	C[C@@]12CC[C@]1(C)O2	
InChI=1S/C6H10O/c1-5-3-4-6(5,2)7-5/h3-4H2,1-2H3	InChI=1S/C6H10O/c1-5-3-4-6(5,2)7-5/h3-4H2,1-2H3/t5-,6+
