17
gdb 4341	3.64637	1.79104	1.21152	1.4831	80.02	-0.1965	0.0109	0.2074	989.8154	0.144109	-326.803152	-326.795503	-326.794559	-326.835564	29.243	
C	-0.0172382453	 1.5179192509	 0.0146706311	-0.4915
C	-0.004088198	 0.0081580105	-0.0033424945	 0.342222
C	-0.0145770334	-0.690938932	-1.2139484517	-0.225607
C	 0.0272068574	-2.0823029314	-1.2124213429	-0.076923
C	 0.0773916553	-2.7937435513	-0.0201837523	-0.199056
C	 0.0860284379	-2.1100593095	 1.2027557104	 0.33517
N	 0.193878809	-2.807647733	 2.4094610385	-0.590322
C	 0.041576125	-0.7099182175	 1.1909188633	-0.27179
H	 1.0018434802	 1.9232857907	-0.0154531594	 0.132315
H	-0.5515699508	 1.9221679546	-0.8500642353	 0.122995
H	-0.4929770877	 1.9056854206	 0.920439257	 0.11994
H	-0.0580226904	-0.1467506467	-2.1517977197	 0.079737
H	 0.0141072781	-2.6233406492	-2.153551233	 0.088646
H	 0.1092117451	-3.879325925	-0.0289056348	 0.077113
H	-0.1501709559	-3.7565519977	 2.3773932121	 0.243808
H	-0.1697297215	-2.3154849436	 3.212849218	 0.243439
H	 0.045974455	-0.1740196605	 2.1372242231	 0.069814
31.5565	204.251	226.5819	286.3108	301.7126	427.9578	448.8733	521.5647	544.7108	564.6839	633.3733	713.3416	747.4153	792.8991	859.057	875.3972	944.2577	950.3541	1008.3723	1019.5147	1058.8916	1097.1974	1136.0561	1192.4169	1195.8695	1320.7708	1341.7294	1351.7826	1411.0781	1472.1204	1489.1378	1508.5648	1530.8047	1629.4534	1647.3018	1660.7529	3026.5586	3084.1174	3111.2659	3149.8407	3160.5165	3172.3323	3188.1377	3560.0463	3657.7659
CC1=CC=CC(N)=C1	Cc1cccc(N)c1	
InChI=1S/C7H9N/c1-6-3-2-4-7(8)5-6/h2-5H,8H2,1H3	InChI=1S/C7H9N/c1-6-3-2-4-7(8)5-6/h2-5H,8H2,1H3
