14
gdb 2020	7.80016	1.90068	1.76453	2.6952	59.69	-0.2499	0.0278	0.2777	728.0368	0.113588	-324.558989	-324.552833	-324.551889	-324.588867	23.568	
N	 0.0287740414	 1.1558880805	 0.5781204704	-0.541256
C	-0.0291192905	 0.0315013331	 0.0288722717	 0.43173
C	-1.1306075347	-0.972135351	-0.2533386678	-0.438751
C	 0.003878306	-1.7755161393	-0.8788100592	 0.451908
C	 0.3669073195	-3.2145411259	-0.8017253189	-0.330548
C	 0.1001947712	-2.5434253932	-2.1474955936	-0.330548
O	 0.9636056601	-0.7389482486	-0.5520947886	-0.268403
H	 0.9819432958	 1.5227415711	 0.5721614494	 0.228607
H	-1.5922920148	-1.4036411061	 0.636782648	 0.140367
H	-1.9042842438	-0.6185621727	-0.9374999802	 0.140368
H	 1.3970086395	-3.4545396771	-0.562375187	 0.134268
H	-0.3666360789	-3.9124104209	-0.4116843419	 0.123996
H	-0.8157461425	-2.7823363186	-2.6777910571	 0.123995
H	 0.9569755317	-2.347305761	-2.7826809151	 0.134268
102.6602	260.2311	281.1022	432.4526	474.8151	500.8307	523.9636	755.504	782.8286	842.8787	869.5402	879.8994	922.3793	944.2446	992.9668	1019.5555	1047.8547	1051.1809	1076.6343	1152.821	1178.6682	1184.3701	1219.9624	1312.5785	1385.714	1450.1045	1464.0877	1506.4128	1832.5359	3082.208	3132.9352	3135.0458	3135.8969	3216.4424	3229.708	3478.3946
N=C1CC2(CC2)O1	[NH][C]1CC2(CC2)O1	
InChI=1S/C5H7NO/c6-4-3-5(7-4)1-2-5/h6H,1-3H2	InChI=1S/C5H7NO/c6-4-3-5(7-4)1-2-5/h6H,1-3H2
