20
gdb 2858	6.41885	1.32723	1.21234	1.207	72.31	-0.2193	0.0918	0.3111	1068.0576	0.182388	-291.017787	-291.009232	-291.008288	-291.050853	30.779	
C	 0.2981238109	-2.879402644	 0.3417130644	-0.378779
C	-0.0643703906	-1.5101562103	 0.9296724427	-0.199608
C	-1.4998346307	-1.1316460187	 0.6185529597	 0.032712
C	-2.613364033	-1.4566723168	 1.5576759776	-0.254382
N	-2.2342507057	-0.0697614078	 1.305146592	-0.088099
C	-1.6113509635	 0.6774884086	 2.393034482	-0.111702
C	-2.6771384967	 1.4258229733	 3.1910285676	-0.372406
H	 1.3429945891	-3.1331248803	 0.5444117372	 0.112635
H	-0.3305601229	-3.6688274082	 0.7664879398	 0.119488
H	 0.1568487445	-2.8927457225	-0.7445548878	 0.117414
H	 0.1046899505	-1.5220521272	 2.0109393736	 0.099293
H	 0.6090308448	-0.7468675418	 0.5175479786	 0.100708
H	-1.7249853682	-1.1631640552	-0.4486705168	 0.083404
H	-3.5905312629	-1.7652915812	 1.1944034218	 0.109534
H	-2.3305680612	-1.8919517697	 2.5173036108	 0.099715
H	-1.0271668434	 0.0396592811	 3.07731115	 0.080251
H	-0.9095705261	 1.3934176457	 1.9478513335	 0.10018
H	-2.2188177036	 2.0220503036	 3.9863598527	 0.107691
H	-3.2482156713	 2.0913651637	 2.5378575305	 0.12537
H	-3.37940359	 0.7252023576	 3.6548233899	 0.116581
63.4322	91.3857	142.8308	209.7548	233.5629	268.0865	319.2592	352.8105	443.9996	574.0293	724.412	780.6949	812.8726	821.1964	917.671	951.7438	961.3913	1021.1822	1045.0584	1070.7307	1105.0889	1113.7544	1148.4751	1150.2317	1197.0255	1199.5105	1284.5907	1316.0042	1339.043	1346.7068	1388.7399	1408.689	1409.7475	1430.0628	1483.3768	1488.3967	1489.0676	1498.4408	1504.7346	1507.2061	1517.0611	2956.9813	3021.1136	3032.9676	3037.4408	3044.2248	3069.2906	3075.1525	3088.7434	3104.5596	3105.9245	3106.9995	3119.1942	3164.3357
CCC1CN1CC	CC[C@H]1CN1CC	
InChI=1S/C6H13N/c1-3-6-5-7(6)4-2/h6H,3-5H2,1-2H3	InChI=1S/C6H13N/c1-3-6-5-7(6)4-2/h6H,3-5H2,1-2H3/t6-,7?/m0/s1
