14
gdb 4511	3.62871	1.81577	1.22008	1.7753	60.15	-0.1692	0.0645	0.2337	924.0532	0.109129	-412.071908	-412.064012	-412.063068	-412.103591	29.565	
N	 0.1594137296	 1.441491793	-0.0625538301	-0.621426
C	 0.0063331575	 0.0448122088	-0.0438559058	 0.158833
C	-1.0552575971	-0.8195296756	 0.0238892352	 0.252666
N	-2.4186074833	-0.5189220347	 0.1338464696	-0.599558
N	-0.6308538933	-2.1351379628	 0.0505266486	-0.416278
C	 0.6774417847	-2.0613893193	 0.0018753781	 0.438932
O	 1.5280770056	-3.104573816	-0.0008744371	-0.428807
N	 1.138941807	-0.8011976718	-0.0573424781	-0.319325
H	-0.1746625864	 1.8799166519	-0.9143209559	 0.235749
H	-0.2815183198	 1.8984420814	 0.7277256728	 0.243765
H	-2.9806327661	-1.3114568563	-0.1499620457	 0.246561
H	-2.6839449404	 0.2998036201	-0.3986854	 0.232109
H	 0.9762946364	-3.8951710847	 0.0500090958	 0.309476
H	 2.0974060056	-0.4996138641	-0.0863886473	 0.267303
148.8496	196.4272	237.9166	261.9592	278.8373	320.7182	331.5351	402.1878	466.1491	546.0472	635.9361	655.21	671.8799	714.6204	727.6245	789.9182	839.9698	1050.8215	1101.932	1178.0259	1195.7109	1219.9567	1262.5419	1352.014	1448.0693	1570.768	1616.5196	1635.1331	1657.5456	1685.5891	3493.7573	3532.3987	3560.4154	3628.9833	3682.1237	3804.1471
NC1=C(N)N=C(O)N1	Nc1c(N)nc(O)[nH]1	
InChI=1S/C3H6N4O/c4-1-2(5)7-3(8)6-1/h4-5H2,(H2,6,7,8)	InChI=1S/C3H6N4O/c4-1-2(5)7-3(8)6-1/h4-5H2,(H2,6,7,8)
