15
gdb 2774	4.94087	2.02076	1.54015	0.8448	60.2	-0.2412	0.0239	0.2651	807.3154	0.125535	-341.818686	-341.811117	-341.810173	-341.850638	26.145	
C	 0.0645120453	 1.3581513342	-0.0530809473	-0.338217
N	 0.2386832374	-0.0881731446	-0.0726709443	-0.329535
C	 0.5977946734	-0.677379582	 0.9691997674	 0.434254
O	 0.8765113377	-0.1891490158	 2.2403417769	-0.267715
C	 1.0040352343	-1.5401102285	 2.7773613397	-0.081789
C	 0.8254000376	-2.1370006218	 1.3614925302	-0.11859
N	-0.2064581676	-3.1352444982	 1.1845498897	-0.509626
H	 0.8311096651	 1.8228586349	-0.6837467268	 0.128844
H	-0.9058352712	 1.6065292296	-0.4958085978	 0.124471
H	 0.1227253428	 1.8009042786	 0.9481356791	 0.126654
H	 1.9693920504	-1.68422666	 3.2673673172	 0.121629
H	 0.187148955	-1.7697277545	 3.4679121264	 0.11837
H	 1.7627683785	-2.5242048675	 0.9522640205	 0.113456
H	-1.1201289472	-2.7289509384	 1.3683265218	 0.233609
H	-0.2248571613	-3.4389383059	 0.2158313572	 0.244183
84.6782	122.1363	150.3028	205.0252	249.1526	298.7494	413.9804	541.2464	676.6002	725.4367	816.3061	873.8931	961.1146	968.9527	1002.4618	1054.5585	1104.7387	1131.0293	1150.6407	1165.9291	1187.0414	1236.5076	1255.2072	1333.8213	1429.8963	1440.0804	1493.0355	1498.2268	1516.3834	1668.6633	1844.0241	3016.7148	3057.1938	3076.8757	3080.8173	3088.9736	3121.1888	3491.4997	3570.3543
CN=C1OCC1N	CN=C1OC[C@H]1N	
InChI=1S/C4H8N2O/c1-6-4-3(5)2-7-4/h3H,2,5H2,1H3	InChI=1S/C4H8N2O/c1-6-4-3(5)2-7-4/h3H,2,5H2,1H3/t3-/m1/s1
