21
gdb 1191	3.19752	2.02748	1.75763	1.0638	70.74	-0.2456	0.0788	0.3244	886.066	0.191831	-312.122563	-312.113075	-312.112131	-312.156051	34.466	
C	 0.0090144483	 1.5552464962	-0.1051538155	-0.393429
C	-0.049444607	 0.0299673748	 0.0149130718	-0.174221
C	-1.4692425599	-0.5696585998	 0.0878500487	 0.373248
C	-1.3639804072	-2.1022683176	 0.1565422328	-0.419793
C	-2.2464021795	-0.0327352065	 1.301155471	-0.425209
O	-2.0759670885	-0.1603176003	-1.1484572404	-0.273389
C	-3.4231626999	-0.5037199643	-1.3713591166	-0.240729
H	 1.0399202466	 1.8871107367	-0.2630177619	 0.106205
H	-0.5939863263	 1.8954176228	-0.9502417892	 0.132412
H	-0.358686692	 2.0526943679	 0.7978378351	 0.109669
H	 0.4444673906	-0.4178747521	-0.8552607401	 0.09803
H	 0.5096731605	-0.2999127682	 0.8987685545	 0.087134
H	-0.7855345695	-2.405887507	 1.0346935171	 0.112837
H	-2.3461938885	-2.5778005015	 0.2337886915	 0.110147
H	-0.8629167524	-2.4883041372	-0.736177473	 0.118178
H	-2.4336725156	 1.0397762188	 1.2052766943	 0.123186
H	-3.2094582976	-0.5378946447	 1.4195672859	 0.11155
H	-1.6748397238	-0.2008663855	 2.2193463238	 0.11396
H	-3.6749092309	-0.134130451	-2.3692748786	 0.124029
H	-3.5962355367	-1.5892325972	-1.3555956481	 0.102487
H	-4.1076458407	-0.0352744841	-0.6500218231	 0.103699
59.3672	107.4043	176.362	198.1075	240.2399	262.6764	271.3993	302.8334	362.3197	364.5413	416.4404	469.5689	534.8112	711.1565	775.3338	848.616	917.3553	927.2122	992.9472	1009.7273	1066.5836	1074.0664	1128.6812	1181.3529	1195.8957	1215.5887	1222.7205	1272.798	1324.2907	1373.5898	1392.1662	1405.0065	1411.1504	1470.0074	1475.3915	1481.2826	1484.2638	1494.9601	1501.5098	1505.9391	1510.3851	1513.1298	1520.297	2989.2085	3028.0734	3033.6397	3041.2114	3042.1996	3046.0387	3066.1418	3102.1395	3102.8241	3104.3744	3111.2785	3114.7786	3123.1816	3129.6951
CCC(C)(C)OC	CCC(C)(C)OC	
InChI=1S/C6H14O/c1-5-6(2,3)7-4/h5H2,1-4H3	InChI=1S/C6H14O/c1-5-6(2,3)7-4/h5H2,1-4H3
