13
gdb 4239	3.94281	2.02982	1.33998	3.6601	65.57	-0.243	-0.0369	0.2061	844.2865	0.098395	-394.819189	-394.81276	-394.811816	-394.849963	24.461	
N	-0.0399170535	 1.2520763213	 0.4556870628	-0.562803
C	-0.0000204217	 0.0936138077	-0.0462261293	 0.474169
N	-1.132305545	-0.5815715892	-0.4301331951	-0.365291
C	-1.2146279174	-1.8533545912	-0.9913871525	 0.378888
N	-2.3718137149	-2.3106167493	-1.2823343652	-0.538871
C	 0.0918709823	-2.4815935363	-1.1620704915	-0.236061
C	 1.1923710102	-1.8252249986	-0.7887516324	 0.079551
O	 1.1940001196	-0.580228236	-0.2456049399	-0.231227
H	 0.8964714539	 1.582769864	 0.6739231833	 0.232885
H	-2.0031811516	-0.090801986	-0.2850256345	 0.280286
H	-2.293829225	-3.2434301483	-1.6830132304	 0.220941
H	 0.1593680559	-3.4724830556	-1.5889209736	 0.121192
H	 2.2014704473	-2.2088374026	-0.8762526816	 0.146341
106.2611	145.6219	368.0675	373.8784	492.4537	522.6167	586.7855	622.5134	704.032	719.4157	764.5793	786.88	798.7957	847.9192	890.0371	958.2453	982.4624	1049.2758	1123.5347	1155.1707	1274.1575	1319.8388	1407.8484	1414.3887	1463.7163	1666.1372	1733.6955	1786.6488	3215.1597	3238.7343	3507.1757	3541.4393	3623.0544
N=C1NC(=N)C=CO1	[NH][C@H]1NC(=CCO1)[NH]	
InChI=1S/C4H5N3O/c5-3-1-2-8-4(6)7-3/h1-2H,(H3,5,6,7)	InChI=1S/C4H7N3O/c5-3-1-2-8-4(6)7-3/h1,4-7H,2H2/t4-/m0/s1
