14
gdb 3479	5.87921	2.98078	2.80411	1.7976	59.57	-0.2115	0.0705	0.282	560.4801	0.113453	-287.318584	-287.31306	-287.312116	-287.347423	21.871	
C	-0.041409247	 1.4733019168	 0.0212087655	-0.517487
C	 0.0428969716	-0.0119481761	 0.0232029385	 0.393601
C	 1.044527743	-1.0018886511	-0.5208786135	-0.16393
C	-0.1429003655	-1.9473892686	-0.8213836466	-0.047937
C	-0.524923749	-1.9670734281	 0.6137417385	-0.047942
C	 0.6483612996	-1.0223595835	 0.9675328574	-0.163934
N	-1.1377034182	-0.9411347448	-0.3038523054	-0.211395
H	 0.9275677379	 1.9107884585	 0.2844147953	 0.123426
H	-0.3282997527	 1.8473057039	-0.9676922435	 0.130796
H	-0.783453268	 1.8238589486	 0.746874203	 0.130779
H	 2.0192626561	-0.8566919588	-0.9651454942	 0.09269
H	-0.3748526842	-2.6175806488	-1.6407896893	 0.094321
H	-1.1289201101	-2.6564308591	 1.191980234	 0.094321
H	 1.2723480064	-0.8952950291	 1.8410644905	 0.092692
204.2582	254.8866	280.2239	585.1008	657.8775	762.6778	764.6035	772.4049	844.7829	846.7479	864.6624	871.258	881.4838	939.756	976.361	987.5682	1011.3352	1065.8854	1109.4895	1114.8036	1168.4838	1192.8534	1215.6413	1273.9698	1322.3271	1399.2775	1456.4802	1473.1216	1496.5911	3026.7806	3093.1317	3101.7533	3170.3512	3184.8238	3209.1291	3219.3497
CC12C3C4C(C13)N24	C[C@@]12[C@@H]3[C@H]4[C@@H]([C@H]13)N24	
InChI=1S/C6H7N/c1-6-2-3(6)5-4(2)7(5)6/h2-5H,1H3	InChI=1S/C6H7N/c1-6-2-3(6)5-4(2)7(5)6/h2-5H,1H3/t2-,3+,4-,5+,6+,7?
