14
gdb 1226	8.43457	1.11787	1.02811	4.4272	55.88	-0.2512	-0.0207	0.2305	1060.7893	0.111326	-361.759779	-361.751525	-361.750581	-361.793588	27.211	
N	-0.0027829697	 1.3335352492	-0.1051653441	-0.521913
C	 0.0372184677	 0.0051206911	 0.193068817	 0.421646
O	 1.0399849957	-0.5453919986	 0.6031982641	-0.35391
C	-1.2897043179	-0.7368388336	 0.0056490382	-0.327856
C	-1.0619637213	-2.2180708024	-0.31770523	-0.260895
C	-2.2837515328	-3.0569352625	-0.0361994721	 0.158091
O	-2.7947444037	-3.8254556841	-0.808512378	-0.239992
H	 0.8296373432	 1.8820722592	 0.0357860431	 0.265189
H	-0.8282959799	 1.784777281	-0.4566880461	 0.261068
H	-1.839979304	-0.6428024642	 0.9527887733	 0.135473
H	-1.9053747338	-0.2535250249	-0.7604613136	 0.114372
H	-0.7542352209	-2.3680359505	-1.355585025	 0.125538
H	-0.2466086278	-2.566546575	 0.3311679043	 0.155436
H	-2.7010802448	-2.9156000248	 0.9907146189	 0.067753
51.6064	70.9785	87.3401	141.7219	197.0506	312.6193	408.9667	495.9519	541.1101	607.177	670.7307	789.5235	825.3918	880.3226	1022.7693	1065.056	1090.9	1110.3086	1193.7589	1241.2646	1289.9768	1334.8943	1400.0776	1430.6156	1458.2573	1472.4302	1618.6444	1799.9267	1838.753	2836.5238	3018.0791	3032.1796	3071.2793	3112.0425	3605.4733	3742.5975
NC(=O)CCC=O	NC(=O)CCC=O	
InChI=1S/C4H7NO2/c5-4(7)2-1-3-6/h3H,1-2H2,(H2,5,7)	InChI=1S/C4H7NO2/c5-4(7)2-1-3-6/h3H,1-2H2,(H2,5,7)
