17
gdb 2484	4.74486	2.60119	2.39945	1.2978	63.27	-0.2571	0.083	0.3401	645.9474	0.151089	-309.706371	-309.700467	-309.699523	-309.735674	24.118	
O	-0.0595726066	 1.3998629863	-0.0237763655	-0.444558
C	-0.0272920387	-0.0182689961	 0.0168822529	 0.147533
C	 0.4865667081	-0.6154332794	 1.3731968166	-0.249974
C	-0.7996186137	-1.3354925977	 1.8226413803	-0.009729
C	-1.2392261738	-2.0303293098	 0.4994501176	-0.227268
C	-1.4631949667	-0.5616181135	 0.0384999407	-0.016147
C	-1.8933561984	-0.274351878	 1.5062143915	-0.215791
H	 0.8450685588	 1.7206452347	 0.040932793	 0.279827
H	 0.535998413	-0.4097800577	-0.8423816559	 0.058627
H	 1.3312532138	-1.2996517103	 1.2459587744	 0.090176
H	 0.7852903594	 0.1851234832	 2.05715816	 0.092881
H	-0.7701900788	-1.8688797261	 2.7734645251	 0.056284
H	-0.5020798296	-2.6381092567	-0.0360285943	 0.084516
H	-2.1772890203	-2.5810380525	 0.5988778584	 0.096949
H	-2.0894833392	-0.3045834991	-0.8155354618	 0.062651
H	-2.9015389396	-0.635860488	 1.7209789445	 0.091595
H	-1.7587032778	 0.7414528508	 1.8832757626	 0.102428
187.1784	269.6733	334.5647	443.3837	475.1785	520.5813	665.7259	822.0778	833.5905	839.428	857.0709	868.8674	941.7041	952.7262	964.6656	1012.4913	1025.6405	1047.3758	1081.2392	1087.4034	1112.9492	1139.5443	1183.5885	1211.9996	1236.3942	1242.5643	1262.5386	1279.985	1294.1254	1327.5652	1352.6768	1423.1583	1484.6537	1486.7722	1521.7815	2990.1112	3042.7692	3046.7044	3067.3139	3093.7801	3105.3505	3111.6118	3120.4388	3129.2307	3822.2708
OC1CC2CC1C2	O[C@H]1C[C@@H]2C[C@H]1C2	
InChI=1S/C6H10O/c7-6-3-4-1-5(6)2-4/h4-7H,1-3H2	InChI=1S/C6H10O/c7-6-3-4-1-5(6)2-4/h4-7H,1-3H2/t4-,5+,6-/m0/s1
