17
gdb 4128	4.08101	1.37116	1.13074	1.1905	67.69	-0.2468	0.0082	0.2549	1062.5716	0.140628	-400.939473	-400.930841	-400.929896	-400.973688	30.223	
C	-0.3175917561	 1.4145209685	-0.0477282087	-0.490156
C	-0.0410893517	-0.0582516642	 0.0626175982	 0.349377
N	 0.0446626907	-0.7287632569	 1.1454982876	-0.171775
O	-0.1214241474	 0.0705317042	 2.2855600436	-0.39428
C	 0.1706838515	-0.8153355082	-1.2238629165	 0.070901
C	-0.0002150731	-2.3471651704	-1.2278608007	-0.291763
C	-1.1891295307	-2.0704359164	-2.1691249084	-0.059406
O	-0.955654724	-0.6436942072	-2.1253027136	-0.294009
H	 0.6220191858	 1.9800785416	-0.0727147807	 0.137677
H	-0.8616609116	 1.6181311198	-0.9727792699	 0.150852
H	-0.8945005863	 1.7659466186	 0.8081923464	 0.150925
H	-0.0703730174	-0.5781884198	 2.9953783892	 0.30586
H	 1.0924497794	-0.4511487423	-1.7024205682	 0.084499
H	 0.8280562542	-2.8992845409	-1.6727612466	 0.10932
H	-0.2469247898	-2.7701652301	-0.2559816313	 0.132396
H	-1.0938056875	-2.4627375783	-3.1883884483	 0.102802
H	-2.1798368659	-2.3317816679	-1.7785741319	 0.10678
55.6815	68.7409	77.7279	190.139	216.6204	314.9069	366.7225	412.0382	451.9664	528.9841	650.1381	761.6382	800.3102	844.608	937.1261	950.2493	983.2306	1005.5746	1019.0011	1053.2215	1063.3843	1110.1158	1164.1323	1215.8061	1231.5141	1259.8499	1283.3378	1354.6975	1374.655	1394.0009	1405.5002	1479.7551	1490.1434	1491.5197	1531.2318	1735.7498	2984.3375	3021.1751	3038.7518	3061.5845	3098.6489	3110.5304	3155.3132	3163.5935	3820.7147
CC(=NO)C1CCO1	CC(=NO)[C@H]1CCO1	
InChI=1S/C5H9NO2/c1-4(6-7)5-2-3-8-5/h5,7H,2-3H2,1H3	InChI=1S/C5H9NO2/c1-4(6-7)5-2-3-8-5/h5,7H,2-3H2,1H3/t5-/m1/s1
