13
gdb 540	10.82745	1.75781	1.61458	4.0088	48.01	-0.2477	0.0352	0.2828	722.62	0.108023	-323.647099	-323.640154	-323.63921	-323.678439	23.171	
O	 0.1800366469	 1.2314666377	-0.3383863652	-0.42523
C	-0.1141531017	-0.1092331485	 0.0397611185	-0.079678
C	-1.6133192797	-0.1797015596	 0.2878789864	-0.139821
N	-2.3519736904	 0.2097576777	-0.8985500642	-0.268236
C	-3.3462650028	-0.5394867733	-1.4389143019	 0.156087
O	-3.7582624589	-1.5897949151	-0.9910648569	-0.327768
H	 1.1004060262	 1.2782144833	-0.6117541499	 0.293846
H	 0.1623314683	-0.8162839086	-0.7560299179	 0.101456
H	 0.4224481994	-0.3956606726	 0.9567435229	 0.096332
H	-1.9196420529	-1.1960856363	 0.5432386595	 0.147169
H	-1.8675786529	 0.4779951795	 1.1292701494	 0.118415
H	-2.0562605968	 1.0539430221	-1.3629275141	 0.25588
H	-3.7540499546	-0.0747086162	-2.3587924666	 0.071549
43.5822	128.8884	228.9251	252.913	280.6022	356.9215	519.0189	584.9352	761.8451	854.5181	922.2498	1031.5432	1051.9746	1101.2411	1105.9882	1200.5905	1232.947	1262.298	1308.7251	1390.6445	1429.645	1455.2284	1487.5274	1515.2853	1528.9183	1803.9553	2933.8179	2985.5962	3015.1134	3035.3	3126.8641	3639.9151	3838.9073
OCCNC=O	OCCNC=O	
InChI=1S/C3H7NO2/c5-2-1-4-3-6/h3,5H,1-2H2,(H,4,6)	InChI=1S/C3H7NO2/c5-2-1-4-3-6/h3,5H,1-2H2,(H,4,6)
