16
gdb 4971	3.25458	2.28955	1.35708	2.9658	75.58	-0.2077	-0.0079	0.1998	885.5418	0.132857	-342.852941	-342.845777	-342.844833	-342.883852	27.952	
C	-0.0109926219	 1.5057978335	-0.0183569511	-0.500288
C	-0.001282732	-0.0003465234	 0.002977529	 0.28801
N	-0.0600720018	-0.6298158101	-1.1711238496	-0.309397
C	-0.0420284048	-1.9653144192	-1.1953067251	-0.030979
C	 0.0338056043	-2.7376036881	-0.0427495973	-0.11418
C	 0.0900623413	-2.093477675	 1.1861268307	-0.150843
C	 0.0747840136	-0.6981879469	 1.2297048045	 0.243178
N	 0.1937548257	-0.0077301947	 2.4368302585	-0.592078
H	 0.8681618016	 1.920736377	 0.4898582844	 0.13149
H	-0.0186170039	 1.8500572277	-1.0529389818	 0.143477
H	-0.8977442387	 1.9176221049	 0.4843295487	 0.11708
H	-0.089974533	-2.4301963399	-2.1763727348	 0.097854
H	 0.0448615889	-3.8204236684	-0.1027724576	 0.094166
H	 0.1481386945	-2.6622817867	 2.1102264412	 0.087456
H	-0.0552396095	-0.5455739787	 3.2546984987	 0.245593
H	-0.2347736144	 0.9059270579	 2.4532500917	 0.249462
160.1971	181.849	273.9634	302.6142	324.4582	435.9661	459.4514	533.1226	555.6878	593.8868	628.2107	752.9242	759.0717	827.485	878.0694	927.5669	969.5526	984.1353	1056.8948	1071.442	1097.4349	1163.2486	1234.7839	1281.7557	1318.0235	1334.8639	1401.6501	1473.8154	1485.6031	1490.2413	1507.2629	1613.5123	1630.6105	1658.4783	3006.6386	3059.3857	3145.8372	3157.6316	3162.1744	3195.1278	3562.0845	3660.8519
CC1=NC=CC=C1N	Cc1ncccc1N	
InChI=1S/C6H8N2/c1-5-6(7)3-2-4-8-5/h2-4H,7H2,1H3	InChI=1S/C6H8N2/c1-5-6(7)3-2-4-8-5/h2-4H,7H2,1H3
