12
gdb 4725	6.76149	1.35866	1.13932	5.0461	65.43	-0.2639	-0.0623	0.2016	973.2393	0.084622	-377.567486	-377.56064	-377.559696	-377.598762	24.15	
C	 0.020233479	 1.5056558074	 0.0099714862	-0.495606
C	-0.0001148318	 0.0155340032	-0.0247851891	 0.246501
C	-0.1302436848	-0.83133045	-1.0826092172	-0.09907
O	-0.0925760504	-2.1133165532	-0.6270585212	-0.156844
C	 0.061870147	-1.9780379327	 0.7129871987	 0.288616
N	 0.1229488568	-0.7483710175	 1.1258747438	-0.326804
C	 0.1375947041	-3.1620626229	 1.4914951124	 0.26527
N	 0.1991132426	-4.1282225347	 2.1244994352	-0.320929
H	 0.9602896101	 1.8697903619	 0.4358312816	 0.151848
H	-0.0900123104	 1.9229209789	-0.9936681203	 0.13242
H	-0.7914242284	 1.8888828193	 0.6360745684	 0.151854
H	-0.2499925037	-0.7047587998	-2.1450363987	 0.162743
124.7304	142.7795	159.0586	291.2348	333.9479	498.1538	553.8871	573.9124	648.7117	708.5705	739.9668	787.341	974.5983	1009.2239	1026.7772	1068.3974	1143.4787	1219.8689	1297.0195	1340.6509	1419.9168	1475.618	1489.0348	1560.5355	1620.2594	2360.2483	3046.1755	3106.6332	3130.3529	3293.7356
CC1=COC(=N1)C#N	Cc1coc(n1)C#N	
InChI=1S/C5H4N2O/c1-4-3-8-5(2-6)7-4/h3H,1H3	InChI=1S/C5H4N2O/c1-4-3-8-5(2-6)7-4/h3H,1H3
