16
gdb 4469	3.59938	1.74641	1.19385	1.855	69.54	-0.1748	0.0455	0.2204	988.2302	0.130878	-379.951584	-379.943241	-379.942297	-379.98388	30.899	
C	 0.0868712007	 1.5602515631	 0.0669927373	-0.507276
C	 0.0279845733	 0.0662774652	 0.055490266	 0.295491
C	-0.0503411724	-0.7232631859	-1.0456960839	 0.165461
N	-0.091393674	-0.4219813305	-2.4061252439	-0.597874
O	-0.0871525392	-2.0666992753	-0.6538560782	-0.202857
C	-0.0268916518	-2.0809023425	 0.6956478302	 0.377404
N	-0.1351108954	-3.3367910319	 1.2823548568	-0.594436
C	 0.0487438858	-0.8167291361	 1.1964370098	-0.381782
H	 1.0083242578	 1.923258401	 0.5378244603	 0.119411
H	 0.0482296729	 1.9476302343	-0.9537460315	 0.136526
H	-0.749599564	 1.9905978657	 0.6303283681	 0.121069
H	-0.9300706643	-0.7719280048	-2.8594177818	 0.240463
H	 0.7099352283	-0.7830428996	-2.9151956561	 0.238573
H	 0.3141582377	-4.0599291492	 0.7340541154	 0.251028
H	 0.2094310112	-3.3486647088	 2.2326233967	 0.252046
H	 0.1095625235	-0.5374766145	 2.2367257145	 0.086753
125.628	173.6942	191.6407	211.4001	253.4032	257.425	304.4723	359.9977	506.9988	592.3256	633.6393	661.3264	666.1441	724.7982	749.073	772.8752	822.0192	982.9085	1019.5518	1067.1749	1069.1836	1105.6019	1197.0021	1211.4148	1257.3392	1352.5562	1410.8426	1457.1358	1489.3124	1494.2414	1613.8302	1650.2022	1668.5967	1720.3969	3024.2847	3070.1643	3123.9982	3249.3132	3483.1531	3539.1506	3543.9422	3640.4886
CC1=C(N)OC(N)=C1	Cc1c(N)oc(N)c1	
InChI=1S/C5H8N2O/c1-3-2-4(6)8-5(3)7/h2H,6-7H2,1H3	InChI=1S/C5H8N2O/c1-3-2-4(6)8-5(3)7/h2H,6-7H2,1H3
