13
gdb 3377	5.51533	2.32051	2.11745	1.8553	59.4	-0.2336	0.0469	0.2806	645.5901	0.101168	-307.23037	-307.224276	-307.223332	-307.260121	23.096	
C	 0.0272570162	-1.2075109738	 0.0002688732	-0.443751
C	 0.0406496671	-0.0049754781	 0.0190957851	 0.338919
C	 0.0505750273	 1.427727935	 0.0493604878	-0.245412
C	 0.4446013587	 2.2409542587	 1.2854552246	-0.146828
C	 1.6376133471	 1.5742400935	 1.962236719	-0.095921
O	 2.3864188218	 1.5694359109	 0.712000986	-0.276027
C	 1.3233805768	 2.2511540435	 0.0645613352	 0.095978
H	 0.0229685861	-2.2688228942	-0.0266508658	 0.195695
H	-0.7472698418	 1.9103942421	-0.5113539243	 0.118003
H	-0.2059265675	 2.9912822409	 1.7131656667	 0.107568
H	 2.1344491556	 2.2147358473	 2.6979500459	 0.114678
H	 1.4938975257	 0.5662499298	 2.3639173228	 0.123794
H	 1.5686812169	 3.0017313944	-0.678380946	 0.113304
139.7635	166.5931	337.4452	362.0567	545.8798	587.176	636.5252	657.7645	750.9109	790.8253	794.8637	905.4436	961.3235	965.9784	990.8812	1031.6096	1050.8098	1073.6819	1101.803	1159.5726	1164.7748	1256.2533	1305.3941	1352.3555	1412.0166	1505.8572	2236.5546	3041.3117	3096.5295	3134.5316	3178.1918	3208.8855	3504.261
C#CC1C2COC12	C#C[C@H]1[C@H]2CO[C@@H]12	
InChI=1S/C6H6O/c1-2-4-5-3-7-6(4)5/h1,4-6H,3H2	InChI=1S/C6H6O/c1-2-4-5-3-7-6(4)5/h1,4-6H,3H2/t4-,5+,6-/m0/s1
