14
gdb 4505	3.61531	1.84125	1.23547	0.8794	61.34	-0.1888	0.0188	0.2076	933.8056	0.106968	-415.892007	-415.884026	-415.883082	-415.92418	28.659	
C	 0.0437786636	 1.442583325	 0.0324216668	-0.486619
C	-0.04399041	-0.0403068626	 0.0036126679	 0.388508
N	-1.1080929786	-0.7799568356	 0.0950311527	-0.342686
C	-0.6484449152	-2.0861799009	 0.0035452058	 0.172795
N	-1.5326324483	-3.1647798423	 0.0038811124	-0.605776
C	 0.6994143847	-2.0647671763	-0.141913148	 0.246319
O	 1.643408543	-3.0256279747	-0.1773452649	-0.423062
O	 1.1039963363	-0.7412820432	-0.137471008	-0.19846
H	 0.687014077	 1.7861028711	 0.8493948696	 0.143503
H	 0.4618671098	 1.8336714506	-0.9014554579	 0.142122
H	-0.9574601002	 1.8515552943	 0.1705815522	 0.153774
H	-2.3764880996	-2.9411191554	 0.5159185224	 0.252679
H	-1.1137799462	-4.0117904613	 0.365634803	 0.249091
H	 1.9635836438	-3.1434960687	-1.0811195642	 0.307812
98.2742	183.7897	197.7688	245.0615	274.8615	281.3789	286.7231	367.7385	532.1618	625.0156	644.0941	664.2583	703.0551	780.1653	836.3842	989.6483	1022.0062	1063.3415	1093.1097	1148.5401	1245.1755	1327.5519	1342.3309	1412.0544	1428.2044	1474.9345	1482.3543	1615.6299	1636.0934	1749.5739	3040.404	3093.0149	3154.8797	3539.4134	3636.3293	3738.1804
CC1=NC(N)=C(O)O1	Cc1nc(N)c(O)o1	
InChI=1S/C4H6N2O2/c1-2-6-3(5)4(7)8-2/h7H,5H2,1H3	InChI=1S/C4H6N2O2/c1-2-6-3(5)4(7)8-2/h7H,5H2,1H3
