15
gdb 2867	6.6345	1.33699	1.27664	0.5495	53.55	-0.2682	0.0719	0.34	934.9848	0.123894	-382.751729	-382.743927	-382.742983	-382.784392	27.143	
O	-0.1040705974	 1.2794697792	-0.6816301967	-0.416214
C	 0.0662796424	 0.1409217753	 0.1454844398	-0.087297
C	-1.25112665	-0.5652245762	 0.3563386002	 0.034504
O	-1.7424772091	-1.3189183302	-0.7663247488	-0.277725
C	-1.4444969552	-2.0209193539	 0.4536174356	 0.034499
C	-0.3597872841	-3.066512711	 0.3598057988	-0.087294
O	-0.8345325454	-4.2196167646	-0.3142835802	-0.416215
H	-0.479372044	 0.9671441918	-1.5127266812	 0.293361
H	 0.8139018836	-0.5478354856	-0.2692498608	 0.095414
H	 0.4447089828	 0.5122317327	 1.1041871384	 0.116992
H	-2.0126801397	 0.0676875959	 0.8157562691	 0.102106
H	-2.3362868301	-2.3684259533	 0.9785514185	 0.102106
H	 0.5338772277	-2.656083885	-0.1282952923	 0.095412
H	-0.0743466188	-3.3948416707	 1.3652482529	 0.11699
H	-1.1301472728	-3.9318368042	-1.1854409633	 0.293362
55.655	86.6342	156.5382	206.2531	312.5964	380.1598	406.979	433.8655	499.2749	590.1233	774.9262	836.7579	901.1557	969.148	1042.3114	1065.9112	1070.7764	1090.3071	1154.493	1158.1281	1229.5775	1231.6085	1299.3291	1343.262	1368.0275	1392.0687	1422.2625	1433.5319	1486.2829	1492.6358	1498.5798	3009.2083	3026.7484	3072.6408	3077.2359	3095.0447	3107.8298	3802.3438	3802.9926
OCC1OC1CO	OC[C@H]1O[C@H]1CO	
InChI=1S/C4H8O3/c5-1-3-4(2-6)7-3/h3-6H,1-2H2	InChI=1S/C4H8O3/c5-1-3-4(2-6)7-3/h3-6H,1-2H2/t3-,4+
