14
gdb 3718	6.94839	1.82223	1.58521	3.2791	58.51	-0.2544	-0.0084	0.246	781.6857	0.11437	-324.576188	-324.569714	-324.56877	-324.607192	23.027	
C	 0.0947764952	 1.5514410314	 0.1440619143	-0.368035
C	-0.0897463513	 0.0390270726	-0.065436924	-0.309306
C	 0.6445486449	-0.4875370957	-1.2621153475	 0.156256
C	 0.1512600818	-0.9547401102	-2.4399174835	-0.012681
O	 1.140373154	-1.3220084541	-3.2697851114	-0.163268
N	 2.3588407976	-1.0995229773	-2.6383128262	-0.132174
C	 2.0529115284	-0.6096888347	-1.4635881822	-0.037754
H	 1.1506590194	 1.8065898832	 0.2789570338	 0.122427
H	-0.2742084065	 2.1134913102	-0.7191216976	 0.124916
H	-0.4488641666	 1.8894533813	 1.0314264838	 0.11766
H	 0.2463422162	-0.49314622	 0.8330349661	 0.115682
H	-1.156009021	-0.1882984657	-0.1716575781	 0.109726
H	-0.8513440252	-1.0850371549	-2.8180793358	 0.147585
H	 2.8523505731	-0.3566718558	-0.7802104518	 0.128965
51.7851	160.335	209.9295	328.6336	404.0299	614.1356	637.6309	686.8519	786.5725	843.4383	903.3275	911.2353	938.2615	961.0901	1028.039	1070.0283	1093.3137	1150.7421	1206.1154	1271.054	1292.0064	1362.0079	1399.8171	1412.6805	1477.2084	1486.3286	1497.0413	1508.0222	1653.0109	3030.2481	3038.5702	3067.9456	3110.3408	3114.712	3235.6052	3260.6217
CCC1=CON=C1	CCc1conc1	
InChI=1S/C5H7NO/c1-2-5-3-6-7-4-5/h3-4H,2H2,1H3	InChI=1S/C5H7NO/c1-2-5-3-6-7-4-5/h3-4H,2H2,1H3
