14
gdb 3274	5.6373	2.58349	2.11262	2.7501	58.21	-0.2587	0.0257	0.2844	635.8484	0.11516	-324.559733	-324.554024	-324.55308	-324.589253	21.796	
N	-0.1163835891	 1.2118395422	-0.4857270757	-0.547549
C	-0.0655838976	 0.0294267476	-0.0727682794	 0.437282
O	 0.9858511753	-0.6834084386	 0.483834554	-0.27004
C	 0.1693300136	-1.892401348	 0.5860899016	 0.11177
C	-0.5136386139	-2.0185160042	 1.962577515	-0.235601
C	-1.736277616	-1.2128019084	 1.419286204	-0.232119
C	-1.0490548357	-1.1122900365	 0.0191988531	-0.161576
H	 0.7804387422	 1.6863611705	-0.3668254974	 0.227563
H	 0.6650396524	-2.7444691111	 0.1222987829	 0.094481
H	-0.7585751344	-3.0495761959	 2.2289732168	 0.111722
H	 0.0518355901	-1.5666470603	 2.7795989927	 0.121383
H	-2.6561320878	-1.7993076945	 1.3905614941	 0.115004
H	-1.9488787069	-0.2556914274	 1.8982583628	 0.124779
H	-1.6191449321	-1.3694933155	-0.8704844345	 0.102902
117.5133	211.9644	370.1481	436.1829	607.6212	705.3979	734.1099	799.1933	839.8409	857.3979	868.5126	923.7878	947.0834	973.6149	1007.9784	1018.0215	1063.8325	1124.7789	1172.8139	1188.4214	1225.6432	1242.9705	1254.2567	1278.4794	1304.8322	1341.067	1465.7954	1491.0593	1821.9216	3070.2781	3080.5444	3119.0969	3124.2796	3138.1047	3147.9442	3474.7544
N=C1OC2CCC12	[NH][C]1O[C@H]2CC[C@@H]12	
InChI=1S/C5H7NO/c6-5-3-1-2-4(3)7-5/h3-4,6H,1-2H2	InChI=1S/C5H7NO/c6-5-3-1-2-4(3)7-5/h3-4,6H,1-2H2/t3-,4+/m1/s1
