16
gdb 547	8.61403	1.65582	1.48653	2.2344	54.23	-0.2599	0.0832	0.3431	833.3905	0.14179	-308.759185	-308.751559	-308.750615	-308.791113	25.975	
C	-0.1588055276	 1.4829467322	-0.064172276	-0.385538
C	-0.0759600271	-0.0339432812	-0.0589942854	-0.027385
O	-1.3844591204	-0.5592967397	 0.0514953756	-0.255595
C	-1.4388135835	-1.9731074281	 0.0489601648	-0.068484
C	-2.9112494081	-2.3523112731	 0.0117170526	-0.056933
O	-3.5476633764	-1.8221274746	-1.1335786022	-0.421947
H	 0.8413255835	 1.9182657332	-0.1483606322	 0.117853
H	-0.7603590781	 1.8326597759	-0.9082421849	 0.1252
H	-0.6192486031	 1.8462716785	 0.8588837425	 0.128427
H	 0.4015103877	-0.4008132449	-0.9828884081	 0.090235
H	 0.5424207412	-0.3848917805	 0.7838872314	 0.088901
H	-0.9251997786	-2.3731027814	-0.8403901418	 0.093503
H	-0.9482915954	-2.3896442293	 0.9445684403	 0.085763
H	-3.0136985831	-3.4416857772	-0.0311904576	 0.106401
H	-3.3936668041	-2.0031180606	 0.9389070987	 0.09188
H	-3.2868670369	-0.8937935493	-1.1648958577	 0.287719
79.0614	83.1843	157.1601	211.2783	252.4774	337.7058	425.6513	454.688	536.5391	819.6601	839.5512	907.8025	940.2882	1051.9218	1087.1913	1123.3832	1145.6927	1167.1323	1190.8592	1242.3359	1262.6925	1296.5241	1378.6509	1386.389	1405.5637	1437.6829	1448.8406	1484.5408	1498.8265	1500.534	1505.8087	1534.402	2955.7417	2967.2794	2975.7078	2986.2099	3004.2508	3045.0709	3078.01	3119.4134	3121.7251	3791.3203
CCOCCO	CCOCCO	
InChI=1S/C4H10O2/c1-2-6-4-3-5/h5H,2-4H2,1H3	InChI=1S/C4H10O2/c1-2-6-4-3-5/h5H,2-4H2,1H3
