14
gdb 4204	5.35329	1.68876	1.51456	1.3376	64.76	-0.2333	0.0107	0.244	821.6884	0.107914	-378.597348	-378.591085	-378.590141	-378.627638	24.508	
O	-0.1873162591	 1.3300212112	-0.0620550895	-0.39884
N	-0.0278059859	-0.0736728741	-0.0924713807	-0.303133
C	-1.1485230095	-0.6577769059	-0.0356246524	 0.492689
C	-1.4970620732	-2.0941627664	 0.1045319856	-0.137893
C	-2.7522210942	-1.7118259389	 0.8273475843	-0.040061
C	-2.6117685158	-0.279421888	 0.1563665834	-0.193239
C	-3.2497899294	-0.9559588219	-1.0736592214	-0.149025
N	-2.861643568	-2.3043628854	-0.5187176694	-0.145569
H	 0.7259357688	 1.6335003656	-0.0980073062	 0.306906
H	-0.8621965419	-2.9612882126	 0.2094489211	 0.11643
H	-3.2065494544	-2.0890308016	 1.7333316332	 0.114303
H	-2.8987300932	 0.6935142318	 0.5422923278	 0.103935
H	-4.3407348389	-0.9013148596	-1.0877511606	 0.117661
H	-2.8425518753	-0.7186192443	-2.0619159851	 0.115836
136.8921	204.2269	306.1751	390.951	460.6531	493.3175	667.4921	708.0303	752.6959	775.4583	798.3482	832.7776	922.0916	925.821	957.7599	968.788	993.0234	1020.3201	1060.1772	1126.7021	1138.2724	1161.0026	1178.2148	1215.8707	1247.3698	1278.9725	1313.5422	1413.6573	1508.0305	1799.1576	3049.9906	3116.0963	3175.771	3210.917	3239.1918	3820.9694
ON=C1C2C3C1CN23	ON=C1[C@H]2[C@H]3[C@@H]1CN23	
InChI=1S/C5H6N2O/c8-6-3-2-1-7-4(2)5(3)7/h2,4-5,8H,1H2	InChI=1S/C5H6N2O/c8-6-3-2-1-7-4(2)5(3)7/h2,4-5,8H,1H2/t2-,4-,5+,7?/m1/s1
