10
gdb 1585	4.90408	2.24828	1.54223	5.7198	51.27	-0.2751	-0.1097	0.1654	712.308	0.066178	-355.515622	-355.508578	-355.507633	-355.546777	24.091	
N	-0.0499113186	 1.3530983439	 0.0936523907	-0.54545
C	 0.0797170203	 0.0025012903	 0.0216910833	 0.294844
N	 1.1146258683	-0.7476653035	-0.0209840606	-0.492252
C	-1.2524911004	-0.7046338233	 0.0123244008	 0.288166
O	-2.3077630825	-0.1175611839	 0.0072677232	-0.287771
C	-1.199488171	-2.1727444841	-0.0000704611	 0.282078
N	-1.2750948653	-3.3261606475	-0.0074263088	-0.309181
H	 0.7429009619	 1.9538969375	-0.0493986744	 0.266643
H	-0.9752199954	 1.7414684163	-0.0021305609	 0.280006
H	 1.9869020428	-0.2158742558	-0.0194578822	 0.222916
77.6276	164.1221	221.5609	289.7425	300.5936	415.1377	463.6393	509.5882	525.7566	623.6689	725.9807	819.984	891.642	1068.6107	1116.1713	1149.6141	1435.696	1609.072	1721.8361	1781.2149	2346.2201	3466.6133	3595.6539	3729.0619
NC(=N)C(=O)C#N	NC(=N)C(=O)C#N	
InChI=1S/C3H3N3O/c4-1-2(7)3(5)6/h(H3,5,6)	InChI=1S/C3H3N3O/c4-1-2(7)3(5)6/h(H3,5,6)
