14
gdb 4800	6.93423	1.3642	1.14968	2.2661	60.56	-0.1912	0.0372	0.2284	993.9115	0.107863	-415.878365	-415.870753	-415.869809	-415.910336	27.372	
C	-0.0999421046	 1.3727730879	 0.0189957067	-0.243683
O	-0.0536995852	-0.0559069456	-0.0155159893	-0.253389
C	-1.2132712873	-0.6981873055	-0.0167728706	 0.507759
N	-1.351554635	-1.9849099696	-0.0509411997	-0.405322
C	-2.731413479	-2.1636676537	-0.0318276119	 0.281355
N	-3.2472821933	-3.4490593576	-0.1247665591	-0.596079
C	-3.3536972772	-0.9585849958	 0.0178656898	-0.14602
O	-2.3475552027	 0.0153078157	 0.0253987668	-0.199685
H	 0.9401983497	 1.6975998748	 0.0127047309	 0.144325
H	-0.6222181135	 1.7692384319	-0.8566787584	 0.140758
H	-0.5984259117	 1.7272737337	 0.9259834781	 0.139736
H	-2.5871687119	-4.1386835693	 0.2083018822	 0.256192
H	-4.1518704098	-3.5666850123	 0.3089093	 0.246944
H	-4.3663350785	-0.6021542547	 0.0371960145	 0.12711
77.0491	155.3707	220.881	228.7588	265.2015	362.1225	369.6178	546.9621	566.1177	635.2315	658.9547	717.0771	752.2318	767.8499	972.2035	1013.2776	1072.6101	1100.3462	1141.3659	1179.188	1203.3889	1261.9657	1375.5266	1411.8822	1486.1685	1488.6786	1500.4205	1629.2169	1664.4162	1683.0355	3041.4507	3112.6134	3158.7238	3313.1707	3556.7951	3656.4164
COC1=NC(N)=CO1	COc1nc(N)co1	
InChI=1S/C4H6N2O2/c1-7-4-6-3(5)2-8-4/h2H,5H2,1H3	InChI=1S/C4H6N2O2/c1-7-4-6-3(5)2-8-4/h2H,5H2,1H3
