15
gdb 1864	4.75747	2.23069	1.86328	2.0194	56.61	-0.2438	-0.0242	0.2196	715.7164	0.124654	-345.680616	-345.673856	-345.672912	-345.71148	24.789	
C	 0.4112494275	 1.3751544702	 0.1825372173	-0.393971
C	-0.170839564	 0.0034916652	-0.1561383942	 0.116277
C	 0.528521537	-0.6850969887	-1.3364869968	-0.344271
C	 1.5894140972	-1.5498654736	-0.6547613123	 0.369069
O	 2.5400502379	-2.0815280359	-1.1617991996	-0.297159
C	 1.2061766526	-1.599434198	 0.8267274901	-0.18163
O	-0.021987518	-0.9137834382	 0.9472062101	-0.263757
H	 1.4975828289	 1.3281789743	 0.318361894	 0.1197
H	 0.2044350078	 2.0890620994	-0.6215396092	 0.119627
H	-0.0331168711	 1.7543113962	 1.1064910755	 0.130962
H	-1.2488563696	 0.0948687979	-0.3157534062	 0.09123
H	-0.1562660356	-1.3529363365	-1.8719140726	 0.139438
H	 0.9796957938	-0.0094018744	-2.0656669981	 0.134404
H	 1.0867805213	-2.6327328916	 1.169625908	 0.137435
H	 2.0115122044	-1.1390270865	 1.4212561038	 0.122647
77.0989	150.1895	238.9098	339.3012	406.4529	459.5035	465.7319	612.0172	709.2718	763.2296	811.9626	841.2349	918.0405	951.2374	1027.1522	1079.14	1093.353	1120.2286	1175.2946	1198.9151	1223.3781	1261.7098	1315.9559	1356.1194	1383.8103	1408.4034	1446.5722	1481.4471	1492.1132	1495.1944	1860.3612	2983.1689	3034.1387	3050.1379	3067.1896	3071.8375	3103.7551	3119.8678	3123.374
CC1CC(=O)CO1	C[C@H]1CC(=O)CO1	
InChI=1S/C5H8O2/c1-4-2-5(6)3-7-4/h4H,2-3H2,1H3	InChI=1S/C5H8O2/c1-4-2-5(6)3-7-4/h4H,2-3H2,1H3/t4-/m0/s1
