11
gdb 236	9.67999	2.17217	1.81363	5.6789	47.48	-0.274	-0.037	0.237	640.5669	0.082597	-285.324641	-285.317853	-285.316909	-285.356331	21.969	
C	-0.0644949335	 1.5087702667	 0.0113442202	-0.479216
C	 0.0995197541	 0.0026494272	 0.0013782867	 0.388305
O	 1.1680306037	-0.547740858	-0.0118424026	-0.250811
C	-1.2263417143	-0.7886955634	 0.0092134753	-0.455377
C	-1.0474764868	-2.2346110652	-0.0002335291	 0.28988
N	-0.9303005437	-3.3829338242	-0.007486356	-0.291886
H	 0.9171636768	 1.9824015655	 0.0051989617	 0.157951
H	-0.6384524548	 1.8374408241	-0.862401073	 0.147324
H	-0.6227615925	 1.8276076192	 0.8987792406	 0.147296
H	-1.8091818082	-0.4947619413	 0.8911520203	 0.173256
H	-1.8250022107	-0.4853100005	-0.8588309941	 0.173277
23.4368	116.7008	151.2452	344.5505	368.3024	430.4677	474.3473	611.7552	802.9544	830.6281	933.2646	1001.5212	1057.2487	1170.6651	1225.8964	1325.2285	1386.5695	1435.3536	1463.8916	1476.2148	1839.728	2376.6882	3035.214	3041.9945	3071.9915	3099.5031	3160.7289
CC(=O)CC#N	CC(=O)CC#N	
InChI=1S/C4H5NO/c1-4(6)2-3-5/h2H2,1H3	InChI=1S/C4H5NO/c1-4(6)2-3-5/h2H2,1H3
