12
gdb 2671	22.46724	0.86055	0.83756	5.5737	65.18	-0.2798	-0.0517	0.2281	1274.1931	0.088748	-323.344105	-323.336471	-323.335527	-323.376365	24.905	
C	-0.0112747578	 1.4017711029	 0.0105379917	-0.224709
O	-0.0164653751	-0.0106436017	-0.0316830498	-0.2274
C	 0.6463972299	-0.5756442869	 1.0742808595	-0.209286
C	 0.612827413	-2.0288073778	 0.9795320417	 0.024417
C	 0.6007474683	-3.234411246	 0.92752877	 0.119487
C	 0.5857691965	-4.5985128785	 0.8664344683	 0.209937
N	 0.5751310484	-5.7589192893	 0.8179412975	-0.332114
H	 1.0127913902	 1.8051766291	-0.0033722525	 0.113837
H	-0.5424890049	 1.7473121246	-0.8779737252	 0.142766
H	-0.523651269	 1.7836603156	 0.9067975718	 0.113823
H	 1.6984523638	-0.2428490633	 1.1226927625	 0.134612
H	 0.1747444967	-0.2663605688	 2.0239163045	 0.13463
71.057	83.9359	154.2434	227.843	230.0893	354.4536	359.4835	471.4688	575.3689	584.8397	762.5495	980.7736	1018.5142	1139.4267	1178.8658	1181.7937	1220.072	1250.4721	1410.009	1476.3287	1485.5562	1489.5774	1513.3383	2271.7683	2408.6132	2947.8284	2966.8447	2979.4545	3027.9282	3133.2063
COCC#CC#N	COCC#CC#N	
InChI=1S/C5H5NO/c1-7-5-3-2-4-6/h5H2,1H3	InChI=1S/C5H5NO/c1-7-5-3-2-4-6/h5H2,1H3
