13
gdb 4674	7.09131	1.30163	1.09977	2.5436	64.35	-0.2131	-0.0345	0.1786	983.6472	0.096143	-398.648191	-398.641255	-398.640311	-398.67927	25.675	
O	 0.0737464839	 1.3874448866	-0.1042821834	-0.437042
C	 0.0655387311	 0.0305874124	-0.0451460166	 0.306998
C	 0.0290920093	-0.7907128517	-1.1346199386	-0.179173
N	 0.0327364951	-2.1053140763	-0.6577821673	-0.035201
C	 0.0021053177	-3.2468887186	-1.4460910367	 0.180125
O	 0.0052712473	-4.3701528716	-1.0128970374	-0.297192
C	 0.0718642328	-2.0922276715	 0.7259969258	-0.040718
C	 0.0926128857	-0.7913900953	 1.1356605245	-0.303309
H	 0.1010340262	 1.7373466371	 0.7909244034	 0.302568
H	 0.0011895884	-0.5741254575	-2.1884913601	 0.13766
H	-0.026964378	-2.9974730615	-2.5218935558	 0.098075
H	 0.08031331	-3.023269381	 1.2660693341	 0.157786
H	 0.1237524405	-0.4457422612	 2.1587687281	 0.109423
113.8782	210.3768	238.7222	271.8392	336.3022	395.2032	508.775	607.7519	624.9455	691.8394	694.6373	771.6233	806.6415	836.1983	990.1498	998.2942	1030.1641	1084.664	1173.2891	1226.0687	1286.2014	1336.7602	1393.0152	1445.3792	1460.9283	1531.1775	1675.8164	1821.1914	2980.2304	3236.8878	3283.375	3296.2082	3843.3247
OC1=CN(C=O)C=C1	Oc1cn(C=O)cc1	
InChI=1S/C5H5NO2/c7-4-6-2-1-5(8)3-6/h1-4,8H	InChI=1S/C5H5NO2/c7-4-6-2-1-5(8)3-6/h1-4,8H
