16
gdb 2849	6.22879	1.46098	1.28634	2.9232	63.9	-0.2399	-0.0295	0.2103	938.1184	0.135243	-325.753993	-325.746359	-325.745414	-325.786033	26.969	
C	-0.1346152871	 1.6367688582	-0.3288519242	-0.373002
C	 0.0522114279	 0.211897117	 0.1864134934	-0.127691
N	-1.2365882997	-0.486493158	 0.1658038495	-0.069683
C	-1.5495104198	-1.3239419268	-0.9613997615	-0.250476
C	-1.3216637022	-1.9363002376	 0.3978009654	-0.088635
C	-0.122959789	-2.7936945871	 0.5830913406	 0.155888
O	-0.1176202887	-3.785336952	 1.2711899584	-0.264204
H	 0.8105279806	 2.1863875557	-0.2858915021	 0.11685
H	-0.4779782087	 1.6343724883	-1.3684056652	 0.120795
H	-0.877721649	 2.1678110274	 0.2718882815	 0.131952
H	 0.8248949392	-0.2940124344	-0.4131954402	 0.093402
H	 0.4041366697	 0.2279019624	 1.2239503221	 0.116198
H	-2.5635308729	-1.2779023824	-1.3492185035	 0.132722
H	-0.7755606364	-1.4892326777	-1.7126266372	 0.117623
H	-2.1772152363	-2.2522229352	 0.9892337138	 0.114235
H	 0.7871805623	-2.4740918779	 0.0300608591	 0.074026
72.1586	117.2235	191.0814	221.2255	282.9378	318.0783	409.6933	433.9976	561.3664	727.4556	814.1118	866.1754	911.9843	939.5305	1022.3828	1039.4588	1078.4994	1105.0766	1115.6575	1127.0536	1180.6834	1200.8925	1305.7097	1315.8437	1342.2109	1386.4629	1410.9742	1449.1768	1487.0373	1489.1055	1502.0965	1513.6659	1812.1235	2888.7361	2978.1979	3041.315	3062.2696	3079.8247	3111.3187	3124.4888	3149.5591	3177.9423
CCN1CC1C=O	CCN1C[C@H]1C=O	
InChI=1S/C5H9NO/c1-2-6-3-5(6)4-7/h4-5H,2-3H2,1H3	InChI=1S/C5H9NO/c1-2-6-3-5(6)4-7/h4-5H,2-3H2,1H3/t5-,6?/m0/s1
