14
gdb 4366	3.68126	2.00239	1.29815	2.1884	68.54	-0.2028	-0.0027	0.2001	878.8866	0.110275	-378.803059	-378.796514	-378.795569	-378.833388	26.177	
N	 0.0468429671	 1.349088845	-0.1825059794	-0.566269
C	-0.0054063388	-0.0278946767	-0.0821542598	 0.388118
C	-1.225828862	-0.7137640883	 0.0044313543	-0.209792
C	-1.189204735	-2.1011229949	 0.0456657356	-0.044219
C	 0.0237613843	-2.7774255829	-0.0007806467	-0.242836
C	 1.1731343617	-1.991386398	-0.085069028	 0.441361
O	 2.3786277646	-2.5998549704	-0.1287719063	-0.421467
N	 1.1745864718	-0.6631906666	-0.1203037384	-0.427379
H	 0.9509861956	 1.7434805984	 0.0287722816	 0.252255
H	-0.7303361767	 1.8608084796	 0.2037992331	 0.250826
H	-2.1629558946	-0.1703444341	 0.0307442871	 0.082593
H	-2.1163429023	-2.6615025277	 0.1139911603	 0.10249
H	 0.0976714695	-3.8558872155	 0.0289562885	 0.101578
H	 3.0302115749	-1.8878745179	-0.188729112	 0.29274
199.4335	239.7173	327.435	389.2018	452.3236	482.7994	516.8742	537.0308	558.5449	578.9997	702.1744	755.7074	761.8855	808.2663	846.7317	983.7421	990.5011	996.0659	1083.0028	1131.7283	1168.0469	1230.8566	1314.0009	1362.6121	1389.4075	1496.8875	1522.7456	1629.2053	1636.6318	1662.4059	3177.7171	3197.8411	3225.1449	3582.0009	3696.3688	3770.8797
NC1=CC=CC(O)=N1	Nc1cccc(O)n1	
InChI=1S/C5H6N2O/c6-4-2-1-3-5(8)7-4/h1-3H,(H3,6,7,8)	InChI=1S/C5H6N2O/c6-4-2-1-3-5(8)7-4/h1-3H,(H3,6,7,8)
