13
gdb 2964	4.1392	2.59897	1.67523	2.9603	57.39	-0.2549	-0.0675	0.1874	711.3365	0.101465	-340.611683	-340.604921	-340.603977	-340.642625	23.609	
N	 0.1815383964	 1.3377600703	-0.6629801078	-0.479612
C	 0.1049716822	 0.2176186265	-0.0521795949	 0.225361
C	-1.275944322	-0.3843766324	 0.0388593743	 0.161954
O	-1.5196437319	-1.4648688012	 0.510400369	-0.251899
N	 1.1113348142	-0.4667620809	 0.6081321299	-0.07496
C	 1.4891324152	-1.8378768233	 0.3245500251	-0.208453
C	 2.4283712372	-0.7029786029	 0.0486500653	-0.243913
H	 1.1454073673	 1.6806077934	-0.6903629248	 0.22377
H	-2.0471418029	 0.2787122869	-0.3995648434	 0.110464
H	 1.6374137937	-2.4730807328	 1.1920849141	 0.136504
H	 1.027283148	-2.3258630236	-0.5284754774	 0.138706
H	 2.589732202	-0.4233147127	-0.9908344344	 0.127964
H	 3.2662101704	-0.5132896973	 0.712825465	 0.134111
99.542	161.4248	185.9178	224.7687	320.7224	485.1008	572.1024	681.3309	688.2157	811.9803	914.1339	950.3181	964.3228	1047.7244	1048.9616	1089.5665	1132.4599	1137.1918	1169.8192	1175.4019	1307.0685	1381.1844	1425.2905	1496.144	1524.4627	1685.6196	1821.7955	2956.0423	3104.3969	3123.6383	3193.13	3214.6563	3443.762
N=C(C=O)N1CC1	[NH][C](C=O)N1CC1	
InChI=1S/C4H6N2O/c5-4(3-7)6-1-2-6/h3,5H,1-2H2	InChI=1S/C4H6N2O/c5-4(3-7)6-1-2-6/h3,5H,1-2H2
