23
gdb 1094	4.0274	1.38811	1.37066	0.0484	77.88	-0.2997	0.0761	0.3758	1075.9653	0.215798	-276.205821	-276.196156	-276.195211	-276.239455	35.867	
C	-0.0670885017	 1.6426521889	 0.0114882085	-0.375878
C	 0.0340516898	 0.1136702911	 0.0022643953	-0.185955
C	-1.344505928	-0.5597512955	 0.0119442242	-0.159739
C	-1.3813151048	-2.1090134145	 0.0039645512	 0.265102
C	-0.684646775	-2.6820749748	 1.252349359	-0.399269
C	-2.8583282484	-2.5463338304	 0.0157063095	-0.400931
C	-0.7086663006	-2.6685188864	-1.2635930042	-0.399267
H	 0.9232714663	 2.1089311623	 0.0043727783	 0.108695
H	-0.6138080503	 2.0092763012	-0.8646148653	 0.112289
H	-0.5966347024	 1.9997521876	 0.9019549954	 0.112289
H	 0.6007177025	-0.2019011898	-0.8818905878	 0.096737
H	 0.6176690079	-0.2113581326	 0.8718434608	 0.096735
H	-1.8966693062	-0.2091880397	 0.8956418967	 0.083998
H	-1.9135479844	-0.1997682265	-0.8571372396	 0.083998
H	-1.1309763111	-2.285499647	 2.1714501598	 0.105486
H	-0.779053342	-3.7733277786	 1.2820163463	 0.106019
H	 0.3838396169	-2.4462767493	 1.2699449604	 0.110803
H	-3.3908983908	-2.1639362651	-0.8621771616	 0.105912
H	-2.9465751952	-3.6383613268	 0.0106119562	 0.104759
H	-3.3739836887	-2.1735620271	 0.9077148082	 0.105912
H	 0.3592828819	-2.4323007425	-1.2991122981	 0.110805
H	-0.8036025799	-3.7594130169	-1.3031397622	 0.106017
H	-1.172516756	-2.2622209277	-2.1696796608	 0.105485
63.7314	103.1748	185.7829	220.2272	251.1231	255.9525	269.8786	314.5953	333.1496	340.4105	410.6348	423.757	495.897	743.5242	745.4325	867.3192	884.5442	933.862	934.3377	953.2985	958.0659	1016.4031	1031.6828	1053.8787	1113.189	1117.2788	1231.3555	1239.5536	1272.0651	1299.4516	1326.7297	1347.9608	1393.3614	1399.6865	1402.8765	1412.3402	1433.6932	1473.7282	1480.9775	1486.461	1487.0117	1493.1418	1499.8771	1508.1861	1509.2875	1510.7174	1518.9709	2995.3491	3020.1782	3022.8608	3026.7955	3027.0276	3029.4485	3032.2196	3063.3006	3086.2141	3087.0845	3091.5754	3094.5647	3095.8166	3099.3531	3100.2787	3103.5553
CCCC(C)(C)C	CCCC(C)(C)C	
InChI=1S/C7H16/c1-5-6-7(2,3)4/h5-6H2,1-4H3	InChI=1S/C7H16/c1-5-6-7(2,3)4/h5-6H2,1-4H3
