15
gdb 2190	3.82889	2.61094	1.79849	1.6311	58.28	-0.2475	0.0213	0.2688	723.7905	0.125617	-341.831947	-341.824619	-341.823675	-341.863249	26.422	
C	-0.2681446211	 1.4930969497	-0.0534118625	-0.394439
C	 0.0727167333	 0.0220260206	 0.0149837524	 0.133972
O	 1.2532751509	-0.3147071878	-0.7992221327	-0.268101
C	 1.9839182917	-0.6755633364	 0.3116155659	 0.402127
N	 3.1935749612	-0.9846551881	 0.4362760001	-0.548958
C	 0.8165165681	-0.5015471262	 1.2797020411	-0.115226
N	 0.914504699	 0.3623589936	 2.4344703049	-0.512728
H	 0.590742286	 2.115036767	 0.2150011335	 0.119741
H	-0.583186483	 1.7649479106	-1.064878842	 0.130275
H	-1.0832632015	 1.7179427182	 0.640528341	 0.137352
H	-0.7713646217	-0.5969738034	-0.3030935858	 0.092243
H	 3.680765646	-0.9587945827	-0.4615800706	 0.226592
H	 0.4215560176	-1.4694705588	 1.5995825528	 0.11289
H	 1.2851042698	-0.1573314016	 3.2226648386	 0.245316
H	 1.5703763536	 1.1178833354	 2.2624911532	 0.238945
88.5636	171.16	205.307	235.4066	241.137	372.916	445.8845	536.4647	655.6412	746.3642	796.6006	830.3976	861.2058	870.6939	950.6983	1015.9689	1036.429	1062.9773	1111.6038	1193.945	1212.4247	1230.9959	1249.4414	1332.9545	1381.4091	1410.2865	1430.8211	1480.4463	1494.7343	1670.9421	1816.4296	3044.9824	3063.2868	3083.4894	3119.6005	3123.6663	3469.204	3509.9647	3584.9514
CC1OC(=N)C1N	C[C@H]1O[C]([NH])[C@H]1N	
InChI=1S/C4H8N2O/c1-2-3(5)4(6)7-2/h2-3,6H,5H2,1H3	InChI=1S/C4H8N2O/c1-2-3(5)4(6)7-2/h2-3,6H,5H2,1H3/t2-,3+/m1/s1
