14
gdb 1048	7.38584	2.08673	1.64418	3.0463	59.96	-0.1782	0.063	0.2411	734.5473	0.114342	-324.593866	-324.587081	-324.586137	-324.626459	24.416	
C	-0.0364255572	 1.4121842278	 0.0100948205	-0.260082
O	 0.0081391491	 0.0010009251	 0.0032073598	-0.25586
C	-1.1748132874	-0.6597526453	 0.0111984202	 0.425027
C	-1.3707701858	-2.0195403215	 0.0095404449	-0.283218
C	-2.7822788117	-2.2287178618	 0.019984485	-0.12605
C	-3.3957417784	-1.0036347411	 0.0276346526	-0.113455
N	-2.3999737632	-0.0397132378	 0.0221716538	-0.322763
H	 0.9993114099	 1.7546140841	 0.0032754045	 0.144122
H	-0.5455170028	 1.808577823	-0.880312813	 0.118547
H	-0.5311354296	 1.8002508064	 0.9121779618	 0.118633
H	-0.589890814	-2.76208708	 0.001753448	 0.094378
H	-3.2842257463	-3.1841097175	 0.0216815139	 0.09101
H	-4.4344643031	-0.7186987027	 0.0365101367	 0.110792
H	-2.5563023094	 0.9512681712	 0.0255403111	 0.25892
7.1497	215.1567	252.0352	292.4205	374.8711	483.6054	611.4959	626.8624	655.0866	685.6534	759.9747	834.9265	888.7845	968.84	1044.1372	1078.4565	1122.7852	1145.1986	1175.8005	1208.5747	1278.7605	1294.109	1411.7202	1467.9445	1487.2316	1491.3402	1511.4916	1531.2442	1634.3788	2984.6611	3037.8261	3135.3724	3245.3833	3266.5144	3277.5621	3703.1326
COC1=CC=CN1	COc1ccc[nH]1	
InChI=1S/C5H7NO/c1-7-5-3-2-4-6-5/h2-4,6H,1H3	InChI=1S/C5H7NO/c1-7-5-3-2-4-6-5/h2-4,6H,1H3
