15
gdb 1728	4.56831	2.07052	1.87411	3.1841	52.85	-0.2457	0.0523	0.298	722.7479	0.124179	-382.756764	-382.749474	-382.748529	-382.788041	26.438	
O	-0.0659626668	 1.3959090549	-0.1420828216	-0.436737
C	-0.0196609433	-0.021328055	-0.0002411904	-0.14299
C	-1.4667087219	-0.4855873789	 0.0642748244	 0.373574
O	-2.1445158246	 0.1671075249	 1.103672374	-0.479407
C	-2.1704443284	-0.5633068513	-1.3180575857	-0.123318
O	-2.0177756486	-2.000312837	-1.3354592863	-0.275857
C	-1.6358838463	-2.0144844366	 0.0548818788	-0.120944
H	 0.8173737003	 1.7518215882	-0.0130049732	 0.297919
H	 0.4949891374	-0.4991870685	-0.845822484	 0.10625
H	 0.4913364656	-0.3101770972	 0.9302475086	 0.098106
H	-1.8230060134	 1.0785338154	 1.0995296112	 0.288332
H	-3.2231617346	-0.2587161643	-1.2649438068	 0.102058
H	-1.6822320438	-0.0821313165	-2.1720678674	 0.104972
H	-0.7447219987	-2.6278236014	 0.2362522714	 0.098139
H	-2.4505135329	-2.3430322168	 0.712740307	 0.109904
98.6466	130.3099	230.0184	259.6055	335.7235	371.5631	427.3774	469.0428	510.7065	706.6006	824.4951	908.5275	944.4514	974.673	1002.8084	1022.7938	1061.6948	1094.1087	1147.0598	1158.442	1172.3386	1216.2863	1266.3028	1295.7542	1302.1889	1355.0358	1425.7822	1453.0533	1499.0036	1512.6338	1528.2113	2987.6895	3010.2778	3022.9461	3032.2303	3062.9109	3079.166	3764.2965	3843.5411
OCC1(O)COC1	OCC1(O)COC1	
InChI=1S/C4H8O3/c5-1-4(6)2-7-3-4/h5-6H,1-3H2	InChI=1S/C4H8O3/c5-1-4(6)2-7-3-4/h5-6H,1-3H2
