18
gdb 2001	5.90365	1.56167	1.33416	2.1208	64.8	-0.2291	0.0703	0.2995	936.0565	0.1588	-326.941692	-326.933626	-326.932682	-326.973925	29.445	
C	 0.2083499754	 1.4284608708	-0.0894295413	-0.406767
C	 0.0094761458	-0.0799856332	 0.059947924	 0.137825
O	 0.538931952	-0.5507923258	 1.2977598445	-0.426544
C	-1.4587961568	-0.4838734727	-0.1161730645	-0.14428
N	-1.6062771807	-1.9259220447	-0.2293776454	-0.057394
C	-1.7592349429	-2.6741183155	 1.0104607261	-0.196995
C	-2.9169044477	-2.4798222013	 0.0953596072	-0.22881
H	 1.2566691392	 1.6866627907	 0.0816963851	 0.126492
H	-0.0763035464	 1.7731333634	-1.0886222716	 0.118581
H	-0.4018202899	 1.9786985298	 0.6388044044	 0.105361
H	 0.5925433372	-0.6063157471	-0.7037395502	 0.101744
H	 0.1278603406	-0.0373869569	 2.0024297745	 0.273319
H	-2.0482996903	-0.0623204463	 0.724003367	 0.061781
H	-1.8482299234	-0.0322729483	-1.0371506413	 0.100389
H	-1.2379958027	-3.6257053981	 1.0554528495	 0.116992
H	-1.7614941411	-2.1172149988	 1.9447694453	 0.099927
H	-3.6963430334	-1.7908640309	 0.4192570795	 0.103715
H	-3.2621129848	-3.2851933251	-0.5468026027	 0.114664
72.9425	119.5064	175.8239	236.5014	296.1332	322.2336	345.3497	392.3226	473.7058	510.7129	765.8464	835.8546	848.3146	900.3613	930.8142	947.72	1029.3535	1037.6217	1068.0378	1106.9476	1115.9295	1121.2699	1155.4886	1168.8739	1187.3244	1257.1643	1314.7238	1327.4249	1341.5364	1397.7278	1404.5081	1425.3224	1477.6741	1492.0943	1493.4	1496.6429	1521.0856	2891.4273	3022.0028	3044.8293	3059.6811	3090.3836	3094.3257	3106.0145	3120.5941	3175.3445	3192.8862	3793.5384
CC(O)CN1CC1	C[C@@H](O)CN1CC1	
InChI=1S/C5H11NO/c1-5(7)4-6-2-3-6/h5,7H,2-4H2,1H3	InChI=1S/C5H11NO/c1-5(7)4-6-2-3-6/h5,7H,2-4H2,1H3/t5-/m1/s1
