15
gdb 4810	6.27441	1.19576	1.04501	0.9857	64.74	-0.187	0.0328	0.2199	1073.6563	0.11955	-399.822284	-399.814391	-399.813446	-399.854719	29.056	
O	 0.6683335772	 0.2751110916	 0.7562352405	-0.418033
C	-0.1189724718	 0.2987693716	-0.4343511654	-0.177379
C	-1.4992354803	-0.2272179487	-0.2139381309	 0.297175
C	-2.7334140598	 0.2080943928	-0.6594763069	-0.395537
C	-3.7035664607	-0.7070699859	-0.1645436687	 0.331266
O	-5.0568391755	-0.6802072419	-0.3494038951	-0.449415
C	-3.0476884603	-1.6668298176	 0.5731740568	-0.175521
N	-1.7042783804	-1.3611905768	 0.5217430669	-0.282205
H	 0.1999370614	 0.7994349765	 1.4153959436	 0.282699
H	-0.1818474345	 1.3065911614	-0.869284929	 0.102751
H	 0.4412857637	-0.3226901568	-1.1441511157	 0.120544
H	-2.9142875854	 1.0751321843	-1.2785567678	 0.08598
H	-5.2715578675	 0.0761665522	-0.9020069013	 0.295203
H	-3.4257606089	-2.5105620118	 1.1244761683	 0.118116
H	-0.9712635274	-1.8393190508	 1.0163056747	 0.264358
58.2763	142.6693	199.5482	252.1007	312.8906	353.4374	381.6274	474.7029	502.1144	616.875	637.6314	686.9043	699.2891	751.056	771.3614	971.9774	977.0752	1004.1754	1048.3917	1122.6655	1163.1716	1184.113	1203.8731	1308.179	1334.1299	1358.8358	1416.4975	1466.0551	1480.385	1505.219	1546.5293	1656.8637	3002.7245	3043.7527	3230.7665	3280.8603	3681.6172	3799.8639	3848.2699
OCC1=CC(O)=CN1	OCc1cc(O)c[nH]1	
InChI=1S/C5H7NO2/c7-3-4-1-5(8)2-6-4/h1-2,6-8H,3H2	InChI=1S/C5H7NO2/c7-3-4-1-5(8)2-6-4/h1-2,6-8H,3H2
