17
gdb 2932	5.2976	1.93146	1.62279	1.2533	64.79	-0.2329	0.0324	0.2653	795.372	0.14948	-309.725707	-309.718654	-309.71771	-309.756886	26.175	
O	 0.0849009996	 1.2657036465	-0.3279325945	-0.421929
C	-0.0209314525	-0.1361951949	-0.1235373535	-0.080553
C	-1.4837077051	-0.478427633	 0.1521254687	 0.027122
C	-2.381778565	-0.1400745723	-1.0723560824	-0.256082
C	-2.6445179154	-1.4851928085	-1.7038573863	-0.056066
C	-2.252273299	-2.4929033526	-0.9272175917	-0.055497
C	-1.6488203021	-2.0100840175	 0.3704919195	-0.276931
H	 0.9871163526	 1.4641847066	-0.5938570038	 0.285577
H	 0.3217138129	-0.6960142107	-1.0095626081	 0.088266
H	 0.5968582209	-0.4578470471	 0.7303406838	 0.082869
H	-1.7922858299	 0.089003391	 1.034587949	 0.076909
H	-3.3225732655	 0.3375942622	-0.7667309324	 0.100393
H	-1.8868231944	 0.5702826123	-1.7429334218	 0.114171
H	-3.1244892853	-1.5921585871	-2.6708763183	 0.086429
H	-2.3643751068	-3.5463485111	-1.1600694657	 0.086644
H	-0.6919895344	-2.4984235137	 0.5990935871	 0.094993
H	-2.3093071606	-2.2329629302	 1.2193934803	 0.103686
76.0909	142.965	234.8967	254.6381	366.3259	381.9766	464.4685	692.917	723.3889	784.7461	833.9021	898.1874	918.8751	950.7457	974.7308	979.2668	1017.4324	1070.6168	1076.8563	1101.8715	1132.0693	1170.8253	1192.0237	1234.4025	1275.0179	1280.6365	1308.4	1327.6489	1360.1119	1382.7646	1452.8975	1485.9737	1496.8325	1519.4806	1690.3244	2959.4878	2989.8644	3008.6825	3014.8294	3031.9386	3067.9775	3073.0408	3177.4026	3203.4702	3833.1776
OCC1CC=CC1	OC[C@H]1CC=CC1	
InChI=1S/C6H10O/c7-5-6-3-1-2-4-6/h1-2,6-7H,3-5H2	InChI=1S/C6H10O/c7-5-6-3-1-2-4-6/h1-2,6-7H,3-5H2
