14
gdb 3503	6.54334	2.22575	2.08332	3.4696	58.59	-0.2402	-0.0358	0.2044	650.4818	0.114175	-324.491475	-324.485684	-324.484739	-324.521158	21.662	
O	-0.2251820602	 0.0190717282	 0.1295940742	-0.237829
C	-0.0426729356	 1.1777618307	-0.14613873	 0.128382
C	 1.2433234601	 1.9422607024	 0.009394898	-0.037131
C	 1.6103219674	 2.6375728492	 1.3616187928	-0.076084
C	 1.932636689	 1.2109654458	 1.854362637	-0.174225
N	 2.5247484648	 1.20089093	 0.4238048613	-0.14013
C	 3.0413786172	 2.6078352011	 0.7937966672	-0.162198
H	-0.8668159587	 1.8038542057	-0.5632124134	 0.078183
H	 1.3823996227	 2.5668214401	-0.8826311754	 0.088972
H	 1.0785098578	 3.4501679872	 1.8679962425	 0.075679
H	 2.6969889301	 1.1140137309	 2.6291438325	 0.105075
H	 1.124129499	 0.4967634249	 1.9940192084	 0.138471
H	 3.2727175279	 3.2339121507	-0.0722723628	 0.104504
H	 3.8704702885	 2.5835045732	 1.5050788277	 0.108332
107.8499	210.7725	285.6561	444.1178	586.9731	696.2014	766.9899	768.4798	814.9036	882.9602	905.2356	928.234	988.6875	1031.7283	1054.6501	1078.183	1094.0716	1135.9557	1151.4952	1175.4847	1201.9898	1223.8462	1237.9395	1278.7109	1390.6883	1426.5282	1516.1892	1552.6574	1825.5526	2852.7061	3028.964	3042.5505	3057.4466	3078.5541	3122.9743	3171.054
O=CC1C2CN1C2	O=C[C@H]1[C@H]2CN1C2	
InChI=1S/C5H7NO/c7-3-5-4-1-6(5)2-4/h3-5H,1-2H2	InChI=1S/C5H7NO/c7-3-5-4-1-6(5)2-4/h3-5H,1-2H2/t5-/m0/s1
