15
gdb 1951	8.53206	1.55615	1.46178	1.7829	63.48	-0.2522	0.026	0.2782	851.7717	0.12356	-308.467642	-308.460336	-308.459392	-308.499218	26.488	
C	-0.5018125236	 1.3452352496	 0.1292360322	-0.399926
C	 0.2211022008	 0.0201534171	 0.0094490374	 0.176817
C	 0.9398426803	-0.3102692555	-1.3167935776	-0.309171
C	 2.2184422248	-0.409327051	-0.4414202179	-0.032043
O	 1.4808485362	 0.0111256359	 0.7335159878	-0.297731
C	 2.8164253633	-1.7296369199	-0.308835062	 0.339027
C	 3.310381007	-2.8212388636	-0.2104755649	-0.466913
H	 0.1221934698	 2.1645697151	-0.2412914279	 0.119142
H	-1.4335789277	 1.325899388	-0.4470293019	 0.117038
H	-0.7518219965	 1.5497718901	 1.1749856785	 0.130461
H	-0.4217133964	-0.796709359	 0.3646450547	 0.082391
H	 0.6413767582	-1.2312946247	-1.8161537339	 0.12144
H	 0.9616487034	 0.5110017519	-2.0355858642	 0.111782
H	 2.9981169694	 0.3221220375	-0.6877433328	 0.106158
H	 3.7507520709	-3.7831650415	-0.1170738775	 0.201528
48.0089	153.4807	221.1083	229.1657	326.5274	399.7301	507.7236	554.5904	619.0141	667.0501	739.3581	791.7627	890.5264	896.6661	937.1989	986.1347	1028.6243	1089.1415	1102.854	1135.3514	1202.8331	1252.6141	1259.2886	1319.7042	1359.1944	1391.5693	1410.6636	1482.042	1488.7091	1494.5565	2233.1711	3008.7224	3023.622	3032.412	3083.7545	3104.9859	3112.4123	3149.4084	3502.8478
CC1CC(O1)C#C	C[C@H]1C[C@@H](O1)C#C	
InChI=1S/C6H8O/c1-3-6-4-5(2)7-6/h1,5-6H,4H2,2H3	InChI=1S/C6H8O/c1-3-6-4-5(2)7-6/h1,5-6H,4H2,2H3/t5-,6-/m0/s1
