10
gdb 1375	7.41091	1.5729	1.29751	0.8115	54.23	-0.2877	-0.0682	0.2195	836.116	0.064727	-359.297522	-359.290584	-359.28964	-359.328928	23.195	
N	-0.1924435933	 1.3053453559	 0.0116431194	-0.419314
C	-0.0319881665	 0.0596759006	 0.0029985161	 0.125608
O	-1.1638748648	-0.7269371794	 0.0097267955	-0.190673
C	-0.9962846786	-2.0837696796	 0.000185033	 0.317041
O	 0.0637949546	-2.6497180124	-0.0135992943	-0.33102
C	-2.2797687907	-2.7386119207	 0.0091398249	 0.230442
C	-3.3226030166	-3.3346720469	 0.0161097422	-0.348974
H	 0.7141273239	 1.7709013912	 0.0046235662	 0.243948
H	 0.8900034958	-0.5206255158	-0.0102130815	 0.150453
H	-4.2470731438	-3.8599166329	 0.0222816483	 0.22249
102.1014	112.5289	138.9877	275.7707	279.0741	487.5904	543.3721	639.2116	669.0549	712.7236	769.7298	851.9066	932.9655	1020.9495	1070.3156	1212.3093	1256.9444	1389.2759	1746.818	1808.8885	2240.5296	3146.783	3495.4829	3508.7596
N=COC(=O)C#C	[NH][CH]OC(=O)C#C	
InChI=1S/C4H3NO2/c1-2-4(6)7-3-5/h1,3,5H	InChI=1S/C4H3NO2/c1-2-4(6)7-3-5/h1,3,5H
