10
gdb 2495	2.7744	2.70738	1.449	3.011	54.2	-0.2835	-0.0656	0.2179	766.1068	0.063993	-322.148261	-322.141058	-322.140114	-322.180101	23.992	
O	-0.0227205825	-0.0013359178	-0.0423605697	-0.210618
C	-0.0046145854	 1.1915867303	 0.0060367063	 0.177942
C	 1.3242104081	 2.0108853648	 0.0171512713	-0.374969
C	 1.3710625877	 2.8338186168	-1.1876555864	 0.304825
C	 1.3496365973	 3.4762056569	-2.2011612736	-0.40889
C	 1.3789157244	 2.8157356942	 1.2436793431	 0.284014
N	 1.3849103638	 3.4246011279	 2.2250951817	-0.300734
H	-0.914666499	 1.8217569374	 0.0254097116	 0.127701
H	 2.141194967	 1.2804322281	 0.0285434638	 0.178033
H	 1.3540224885	 4.0536363213	-3.093354058	 0.222696
65.5496	126.5336	169.2454	200.1596	350.9078	452.5952	454.5651	520.7515	573.3341	666.8304	672.805	930.7617	947.6787	990.9211	1077.5862	1207.9944	1303.0086	1401.6983	1853.3708	2246.419	2364.3395	2954.3443	3058.6236	3499.575
O=CC(C#C)C#N	O=C[C@@H](C#C)C#N	
InChI=1S/C5H3NO/c1-2-5(3-6)4-7/h1,4-5H	InChI=1S/C5H3NO/c1-2-5(3-6)4-7/h1,4-5H/t5-/m0/s1
