9
gdb 143	17.10357	3.50921	3.35299	2.8377	40.21	-0.2775	0.0076	0.2851	386.5557	0.069125	-226.107205	-226.102575	-226.10163	-226.134578	15.572	
N	 0.0403173174	-1.1340139691	-0.0084699147	-0.321912
C	 0.0115557703	 0.02223935	 0.0174863714	 0.274076
C	-0.0067109047	 1.4626289343	 0.0340468616	-0.123267
C	 0.5109397061	 2.1731755602	 1.2435582082	-0.21964
N	 1.268089053	 2.2088348485	-0.0065754944	-0.296063
H	-0.8072442369	 1.9100063644	-0.5467797499	 0.144808
H	 0.0458313763	 3.1117757632	 1.5282827017	 0.142208
H	 0.8707891219	 1.5624535534	 2.0658828574	 0.14337
H	 2.0495784667	 1.5586235551	 0.0317800287	 0.256419
217.9572	228.7223	548.4027	570.143	778.9816	833.4771	923.2195	963.3706	1020.34	1116.6579	1139.4887	1190.8963	1255.7593	1295.8744	1385.1475	1507.3612	2353.3465	3123.3784	3163.6369	3216.4465	3509.5448
N#CC1CN1	N#C[C@H]1CN1	
InChI=1S/C3H4N2/c4-1-3-2-5-3/h3,5H,2H2	InChI=1S/C3H4N2/c4-1-3-2-5-3/h3,5H,2H2/t3-/m0/s1
