15
gdb 4576	5.82423	1.54504	1.23176	3.1912	72.28	-0.2195	-0.0296	0.19	954.7339	0.120519	-358.904605	-358.897157	-358.896213	-358.937079	27.305	
C	 0.0029426873	 1.4964923793	 0.0140786559	-0.459887
C	 0.0060882558	-0.007662138	 0.0095436121	 0.338606
N	 0.1081856247	-0.6203115202	-1.1783832856	-0.27478
C	 0.1044961574	-1.9470931939	-1.1832337761	-0.043266
C	-8.1369*^-6	-2.713834275	-0.0158398552	 0.248021
N	-0.0681335036	-4.1033253336	-0.0372112762	-0.595022
C	-0.0929664143	-1.9704949327	 1.1642345143	-0.046151
N	-0.0910327623	-0.6403639074	 1.1841772039	-0.271876
H	 0.9052726658	 1.8845184814	-0.4691338206	 0.133895
H	-0.8514016251	 1.8803585828	-0.5533531054	 0.134869
H	-0.0496079662	 1.8697845618	 1.0372420733	 0.132311
H	 0.1883086724	-2.4369133168	-2.1537646374	 0.099354
H	 0.3598899014	-4.5387646566	-0.8418263161	 0.25237
H	 0.2132048914	-4.5570534486	 0.8202221801	 0.252469
H	-0.1716269178	-2.4760025126	 2.1268536029	 0.099086
28.1048	125.0468	275.7212	303.2147	355.9494	409.322	429.5033	506.7352	512.5575	612.5763	659.4518	774.475	776.9309	869.8608	934.2729	964.7479	1002.0116	1049.0612	1065.9518	1106.3544	1255.401	1297.2827	1315.1049	1328.6777	1407.4385	1445.1243	1479.2134	1480.8994	1496.9332	1590.4817	1632.0446	1659.0145	3043.298	3098.1784	3120.592	3124.3354	3150.6717	3559.1475	3655.9488
CC1=NC=C(N)C=N1	Cc1ncc(N)cn1	
InChI=1S/C5H7N3/c1-4-7-2-5(6)3-8-4/h2-3H,6H2,1H3	InChI=1S/C5H7N3/c1-4-7-2-5(6)3-8-4/h2-3H,6H2,1H3
