12
gdb 3807	8.08545	2.12171	1.6987	1.3752	51.63	-0.2332	0.0011	0.2343	689.187	0.092279	-356.68654	-356.680403	-356.679459	-356.716664	21.434	
C	 0.0053696825	 1.4036489542	 0.0485062772	-0.238385
O	 0.0107847538	-0.0227797984	 0.014395631	-0.262406
C	 0.6240593166	-0.6266498235	 1.038485377	 0.395002
N	 1.2077040971	 0.0090612894	 2.0513440774	-0.308404
N	 1.6652072305	-1.0019557501	 2.7984966622	-0.082623
N	 1.4267885308	-2.223544146	 2.3538874822	-0.187442
C	 0.7574111834	-2.0188819213	 1.2210782926	-0.14202
H	 1.0266105452	 1.7983619879	 0.0422885918	 0.136065
H	-0.527246233	 1.7213638223	-0.8483984816	 0.133114
H	-0.5073211776	 1.7710113051	 0.9434735028	 0.136061
H	 2.1655611389	-0.8360880076	 3.6550785185	 0.291925
H	 0.4111246717	-2.8321487621	 0.6061004288	 0.129113
104.1468	179.3116	241.1694	356.9247	417.9569	489.4008	704.1021	710.8921	736.3488	851.2192	983.491	1008.6139	1072.0682	1167.6711	1180.2753	1193.8011	1221.9091	1262.1191	1382.4939	1424.3378	1459.3254	1480.7132	1500.2954	1519.926	1604.2725	3033.1486	3100.5405	3149.3023	3285.0957	3684.9435
COC1=NNN=C1	COc1n[nH]nc1	
InChI=1S/C3H5N3O/c1-7-3-2-4-6-5-3/h2H,1H3,(H,4,5,6)	InChI=1S/C3H5N3O/c1-7-3-2-4-6-5-3/h2H,1H3,(H,4,5,6)
