12
gdb 1217	8.77188	1.34906	1.17834	2.2526	53.03	-0.2699	0.0258	0.2957	927.336	0.08835	-360.517106	-360.509433	-360.508489	-360.549837	26.319	
N	-0.1057907045	 1.3024526396	 0.122364045	-0.564161
C	 0.0682719503	-0.0464428104	 0.0232773628	 0.513671
O	 1.1304548148	-0.6176457256	-0.0572897672	-0.393457
O	-1.139442545	-0.6696450808	 0.0608977124	-0.256826
C	-1.0551482304	-2.1041771616	 0.0157891169	-0.217223
C	-2.4024238091	-2.6496700203	 0.0104118629	 0.285415
C	-3.5006064426	-3.1346653501	 0.0045846418	-0.415708
H	 0.6930365161	 1.8743468765	-0.0895330447	 0.271027
H	-1.023163264	 1.6897853177	-0.0173910301	 0.268724
H	-0.5008243492	-2.4098783836	-0.8779642792	 0.152737
H	-0.4879937272	-2.4639131967	 0.881356901	 0.151867
H	-4.4727257591	-3.5623018548	-0.0002428617	 0.203935
26.2075	133.3865	149.6364	271.2262	313.0893	327.3628	418.4328	509.1645	556.6744	614.8185	658.5492	685.5833	782.5784	937.4874	981.6554	1015.6739	1091.0616	1116.31	1249.4497	1339.406	1417.8454	1493.245	1611.7974	1834.6798	2251.0581	3043.9898	3077.9341	3506.0872	3617.911	3748.9722
NC(=O)OCC#C	NC(=O)OCC#C	
InChI=1S/C4H5NO2/c1-2-3-7-4(5)6/h1H,3H2,(H2,5,6)	InChI=1S/C4H5NO2/c1-2-3-7-4(5)6/h1H,3H2,(H2,5,6)
