13
gdb 1840	6.66772	2.06592	1.6088	5.3163	57.16	-0.2647	-0.038	0.2268	736.1728	0.102151	-344.512144	-344.505822	-344.504878	-344.542367	22.714	
C	-0.0294297558	 1.4850851903	 0.0641395015	-0.49477
C	-0.0015136843	-0.001859411	-0.0396145155	 0.311656
C	-0.0442963491	-0.788638859	-1.1177814583	-0.352643
C	 0.0114385572	-2.2057427778	-0.6988651148	 0.455585
O	-0.0024869174	-3.2097410764	-1.3516911131	-0.349519
O	 0.0893625127	-2.2247597262	 0.6788291807	-0.232536
C	 0.0869463514	-0.8922582367	 1.1737246685	-0.159996
H	 0.8713399033	 1.8595970178	 0.5653982076	 0.143801
H	-0.0954821079	 1.9545585397	-0.9195378228	 0.143774
H	-0.8842725901	 1.8197412074	 0.6642673164	 0.143798
H	-0.1092808995	-0.5012461443	-2.1570891061	 0.126927
H	 1.0038999668	-0.716529485	 1.7519729215	 0.131962
H	-0.7664277774	-0.7567200987	 1.8515432945	 0.131962
129.1554	176.9366	236.5506	284.4379	439.6913	505.2484	586.8866	708.8424	737.182	877.3651	889.1932	903.749	980.8897	1004.4148	1081.8332	1085.6006	1138.4225	1184.0774	1204.1429	1322.3569	1371.0762	1413.961	1477.9132	1480.9308	1493.7198	1705.089	1874.3824	3015.6605	3028.6089	3047.6351	3077.4275	3128.5462	3247.3056
CC1=CC(=O)OC1	CC1=CC(=O)OC1	
InChI=1S/C5H6O2/c1-4-2-5(6)7-3-4/h2H,3H2,1H3	InChI=1S/C5H6O2/c1-4-2-5(6)7-3-4/h2H,3H2,1H3
