12
gdb 4416	3.71457	2.06516	1.32726	3.0826	61.64	-0.2223	-0.0481	0.1742	832.8449	0.084628	-418.547386	-418.541089	-418.540145	-418.577799	24.073	
O	 0.0464159029	 1.3268064216	 0.0073741771	-0.390521
C	-0.0517845988	-0.0038844992	 0.0011561731	 0.509115
C	-1.2411278201	-0.6652098009	 0.0043758758	-0.317994
C	-1.1754159345	-2.0798518081	-0.0031108438	-0.017963
C	 0.0085266775	-2.7572552118	-0.0130831682	-0.288732
C	 1.2646842493	-2.0662881688	-0.0167036634	 0.427792
O	 2.3882791949	-2.477351097	-0.0247888969	-0.331883
O	 1.1233838957	-0.6201434679	-0.0084904507	-0.274826
H	 0.9859643726	 1.5561891387	 0.0033403529	 0.317327
H	-2.1692142502	-0.1143966656	 0.0123066684	 0.121772
H	-2.1048694973	-2.6410775203	-0.0007467277	 0.122458
H	 0.0606865981	-3.8373899506	-0.0187276067	 0.123455
154.6788	198.8415	342.853	428.013	443.4992	488.8086	530.7496	549.7078	696.8969	738.774	741.221	787.3105	833.3459	835.9052	996.3171	1005.8599	1057.2149	1088.6231	1181.0065	1224.7562	1332.0239	1425.0348	1468.3709	1585.0183	1696.6604	1870.7986	3182.5301	3230.7672	3249.8647	3781.8146
OC1=CC=CC(=O)O1	Oc1cccc(=O)o1	
InChI=1S/C5H4O3/c6-4-2-1-3-5(7)8-4/h1-3,6H	InChI=1S/C5H4O3/c6-4-2-1-3-5(7)8-4/h1-3,6H
