9
gdb 3644	10.31353	2.0564	1.71454	2.1395	52.68	-0.2707	-0.0435	0.2273	646.8846	0.056456	-334.36233	-334.35697	-334.356026	-334.391449	19.064	
C	 0.0342438449	-1.1658788453	-0.0043457592	-0.396125
C	-0.0122076323	 0.0344978719	 0.0026589054	 0.323148
C	-0.0450301942	 1.4477202749	 0.010656631	 0.232994
N	-1.1689151314	 2.1698896314	 0.0300141298	-0.247515
N	-0.6763963456	 3.3957647318	 0.030177575	-0.090808
N	 0.6490733947	 3.4700415609	 0.0132984798	-0.091552
N	 1.0717346959	 2.2382151823	 0.0010963523	-0.247553
H	 0.0728395625	-2.2276202332	-0.0105118282	 0.210344
H	-1.2622763345	 4.2180455554	 0.0425056842	 0.307067
172.8492	180.95	476.6136	534.6911	592.4476	616.8445	638.5737	688.629	733.0085	789.1648	1031.5853	1059.4073	1109.9116	1207.118	1264.8886	1314.3352	1457.9028	1510.5061	2257.4381	3501.0561	3643.2617
C#CC1=NNN=N1	C#Cc1n[nH]nn1	
InChI=1S/C3H2N4/c1-2-3-4-6-7-5-3/h1H,(H,4,5,6,7)	InChI=1S/C3H2N4/c1-2-3-4-6-7-5-3/h1H,(H,4,5,6,7)
