15
gdb 4583	5.72107	1.5251	1.20731	2.662	73.8	-0.1825	-0.0086	0.1739	954.2156	0.122029	-358.906545	-358.899455	-358.89851	-358.937344	27.832	
N	-0.0154416056	 1.4249348948	 0.1201898755	-0.596396
C	 0.0180099121	 0.0217323235	 0.0437515489	 0.252363
C	-1.1501947606	-0.7423944618	 0.0424504121	-0.057299
N	-1.1801895399	-2.0760385315	 0.0321555034	-0.323319
C	-0.0227719077	-2.7395305728	 0.0306895976	 0.351915
N	-0.0990685785	-4.131293057	 0.0886898097	-0.570617
C	 1.2117692095	-2.0715770921	 0.0270277415	-0.16618
C	 1.2253302053	-0.688383783	 0.0313589854	-0.128357
H	 0.7609529784	 1.8745326295	-0.3463391796	 0.242102
H	-0.8869504647	 1.8222190686	-0.2046764974	 0.243209
H	-2.1190958676	-0.2435946398	 0.0458152583	 0.087991
H	-1.0140493748	-4.4705701832	-0.1743047333	 0.247424
H	 0.6450284153	-4.623601926	-0.3836280262	 0.241972
H	 2.1401444588	-2.6331847809	 0.0269453865	 0.085595
H	 2.1701445399	-0.1519782482	 0.0322220875	 0.089597
141.539	217.4771	311.6884	330.9198	359.5187	428.2076	433.0946	496.6451	527.0318	628.9442	659.3524	695.617	773.6945	803.7461	845.8098	875.4046	927.9663	954.4828	1029.2257	1073.2548	1129.479	1164.2658	1305.166	1325.1172	1335.8852	1350.8228	1464.6959	1533.4809	1617.5862	1632.1569	1651.9004	1667.395	3124.9858	3163.4143	3184.4912	3542.3077	3557.7779	3634.8761	3664.9653
NC1=CN=C(N)C=C1	Nc1cnc(N)cc1	
InChI=1S/C5H7N3/c6-4-1-2-5(7)8-3-4/h1-3H,6H2,(H2,7,8)	InChI=1S/C5H7N3/c6-4-1-2-5(7)8-3-4/h1-3H,6H2,(H2,7,8)
