15
gdb 3085	3.60739	2.33779	1.98415	1.0958	63.3	-0.247	0.038	0.285	724.9841	0.122715	-308.469258	-308.46136	-308.460415	-308.500958	28.552	
C	-0.1180499792	 1.5556043189	-0.0881572795	-0.401306
C	 0.0051513226	 0.0526520121	-0.0228028328	-0.050648
C	 1.3308241348	-0.6247694227	-0.2284082034	 0.108857
O	 2.4683871046	 0.146713154	-0.4374466779	-0.421332
C	 0.6926809408	-0.6455229379	 1.1612796093	-0.262289
C	 1.3447955929	 0.1063949156	 2.1879292073	 0.30152
C	 1.9620350115	 0.7287676416	 3.0148931971	-0.449044
H	 0.8128293069	 2.0394709206	 0.2113071605	 0.133299
H	-0.344366237	 1.8715941396	-1.1117393398	 0.121033
H	-0.9197432343	 1.9160047444	 0.5640192565	 0.119194
H	-0.8556409649	-0.4962919175	-0.3957692863	 0.092579
H	 1.3501850664	-1.5697176206	-0.7674045057	 0.099773
H	 2.8985642395	 0.2889662122	 0.4158278869	 0.292224
H	 0.2603516899	-1.5874974319	 1.4846410386	 0.115143
H	 2.4647760655	 1.2828134515	 3.7685652693	 0.200997
118.8695	131.8644	145.0491	213.7965	237.824	333.3291	388.5098	528.0785	590.526	609.9138	649.1471	659.4305	741.769	780.6932	873.775	954.0694	993.7292	1033.1505	1097.1013	1126.8246	1141.3086	1173.523	1238.8126	1350.8224	1362.2083	1380.8831	1419.7071	1424.4932	1488.7428	1498.3919	2222.5945	3042.7983	3101.3725	3123.0779	3134.1091	3146.2078	3155.5612	3502.4106	3750.983
CC1C(O)C1C#C	C[C@H]1[C@@H](O)[C@H]1C#C	
InChI=1S/C6H8O/c1-3-5-4(2)6(5)7/h1,4-7H,2H3	InChI=1S/C6H8O/c1-3-5-4(2)6(5)7/h1,4-7H,2H3/t4-,5+,6-/m1/s1
