15
gdb 4365	3.74612	1.82488	1.22853	2.5899	72.22	-0.1957	0.0144	0.2102	931.1849	0.121199	-362.732392	-362.725475	-362.724531	-362.762976	27.797	
N	 0.0070445426	 1.3986593895	-0.1637394483	-0.592127
C	 0.0049690637	 0.0047782866	-0.0690635327	 0.355312
C	-1.2010736816	-0.7041673853	 0.0085836966	-0.211464
C	-1.1844310114	-2.0942726364	 0.039920785	-0.069384
C	 0.0070361686	-2.8090787391	-0.0023666394	-0.225883
C	 1.2072443376	-2.1010220639	-0.078885805	 0.426225
O	 2.3624495943	-2.8258120308	-0.1177328762	-0.445158
C	 1.210263991	-0.70781672	-0.1104463694	-0.349611
H	 0.8509537721	 1.8450261439	 0.1650883186	 0.243424
H	-0.8146064299	 1.8441219374	 0.2182297308	 0.246013
H	-2.141526116	-0.1635058787	 0.0394844727	 0.076385
H	-2.1244601484	-2.6334815576	 0.1016072367	 0.092226
H	 0.0288636095	-3.8913041973	 0.0226976185	 0.095652
H	 3.1096378274	-2.2221196859	-0.1792159308	 0.293738
H	 2.1530979806	-0.1688803725	-0.1745865172	 0.064653
221.3136	232.4043	299.327	323.0533	367.7819	458.0134	466.2489	526.2526	543.8648	593.5405	652.7785	702.8917	759.8984	775.987	829.8905	847.21	949.3761	976.7998	1005.9646	1085.0602	1131.2302	1179.8659	1204.3416	1227.2783	1348.5224	1352.452	1376.6589	1508.6391	1543.0744	1643.2453	1649.2538	1662.9274	3142.9198	3168.1605	3185.0034	3211.7519	3562.4369	3660.4696	3824.4769
NC1=CC=CC(O)=C1	Nc1cccc(O)c1	
InChI=1S/C6H7NO/c7-5-2-1-3-6(8)4-5/h1-4,8H,7H2	InChI=1S/C6H7NO/c7-5-2-1-3-6(8)4-5/h1-4,8H,7H2
