15
gdb 3375	5.10485	2.29737	2.09798	0.917	66.34	-0.2419	0.0512	0.2931	679.9994	0.125337	-271.318448	-271.31211	-271.311165	-271.348321	24.69	
C	 0.0386620919	-1.2003302006	 0.009686526	-0.469196
C	 0.0466274632	 0.0030125912	 0.0318617884	 0.340275
C	 0.0595008707	 1.438201803	 0.0611077047	-0.197936
C	 0.4851307266	 2.2479412755	 1.2736181969	-0.060551
C	 1.6047623045	 1.5323241218	 2.0377902114	-0.23163
C	 2.4752153824	 1.5510456338	 0.7360981357	-0.231623
C	 1.3317753635	 2.2661271034	 0.0074981419	-0.06057
H	 0.0262525517	-2.2616089802	-0.0143437307	 0.1932
H	-0.7612696208	 1.9018780592	-0.4810566583	 0.111127
H	-0.1738408113	 3.0094088724	 1.674044699	 0.089003
H	 2.0335925918	 2.1496370765	 2.8296454152	 0.103133
H	 1.3507149045	 0.5509248082	 2.4469729643	 0.111319
H	 3.3625591463	 2.1782248846	 0.8422724439	 0.103137
H	 2.76928456	 0.5814313497	 0.3256280237	 0.111309
H	 1.4398734652	 3.0440682114	-0.7391879922	 0.089001
146.9476	159.6306	296.7793	360.8123	527.2407	581.0654	583.2943	651.1188	742.8	757.7752	786.326	787.6746	902.6113	945.5831	959.8759	978.378	993.4996	1028.8957	1071.0792	1103.0601	1148.4976	1166.758	1225.9401	1242.6418	1258.6385	1303.7985	1337.2999	1407.3943	1474.0934	1496.3241	2230.4465	3060.9747	3066.9924	3108.2887	3125.5243	3137.3369	3172.3076	3184.9117	3504.0528
C#CC1C2CCC12	C#C[C@H]1[C@H]2CC[C@@H]12	
InChI=1S/C7H8/c1-2-5-6-3-4-7(5)6/h1,5-7H,3-4H2	InChI=1S/C7H8/c1-2-5-6-3-4-7(5)6/h1,5-7H,3-4H2/t5-,6+,7-
