15
gdb 4880	4.85653	1.42526	1.17474	3.8555	64.72	-0.2168	0.0202	0.2369	1013.5331	0.118934	-399.826266	-399.81885	-399.817906	-399.858323	27.123	
C	 0.1443544747	 1.5646198858	-0.0388795895	-0.377453
C	-0.0343722348	 0.0400913293	 0.0659046508	-0.298666
C	 0.5908204451	-0.5388243633	 1.2806479231	 0.334657
C	 0.1335288861	-1.1956597917	 2.3430454917	-0.163425
O	 1.1896336624	-1.4955122079	 3.1902785906	-0.218363
C	 2.3218620569	-0.9885111694	 2.6007194849	 0.496648
N	 3.5056324472	-1.0283693362	 3.018729882	-0.580289
O	 1.9660182281	-0.3979189676	 1.4236087501	-0.229773
H	 1.2043643367	 1.8306238499	-0.0447581058	 0.145558
H	-0.3085133588	 1.9381973743	-0.9612938573	 0.121105
H	-0.3281722025	 2.0722748011	 0.8070595624	 0.125759
H	-1.09730866	-0.2219325327	 0.0773812251	 0.120399
H	 0.4007314125	-0.4396572267	-0.8201815034	 0.130069
H	-0.8465734965	-1.519761613	 2.6438714989	 0.158367
H	 3.5521656929	-1.5128285421	 3.9111344165	 0.235407
80.115	124.8255	192.8153	221.8395	312.2044	396.9826	498.5511	594.1105	654.675	726.5359	746.8501	761.8877	775.8175	789.9812	912.5828	956.0322	1003.0617	1007.8795	1070.6098	1093.4501	1110.7364	1207.4411	1255.135	1281.6054	1362.2334	1367.0792	1410.1648	1472.0005	1496.259	1508.1272	1741.0245	1812.3943	3029.4335	3047.56	3081.3391	3120.2311	3130.1156	3304.8268	3547.3959
CCC1=COC(=N)O1	CCC1=CO[C@@H]([NH])O1	
InChI=1S/C5H7NO2/c1-2-4-3-7-5(6)8-4/h3,6H,2H2,1H3	InChI=1S/C5H8NO2/c1-2-4-3-7-5(6)8-4/h3,5-6H,2H2,1H3/t5-/m1/s1
