17
gdb 2600	3.104	2.61951	1.72051	2.8513	65.17	-0.248	-0.0151	0.2329	787.0855	0.147133	-309.72711	-309.719431	-309.718487	-309.758691	28.076	
C	 0.2226864056	 1.4608236127	 0.3214347588	-0.383043
C	-0.1750675973	 0.0514159785	-0.134392335	-0.264886
C	 0.6449077506	-0.4619581325	-1.3047762559	 0.277402
C	 2.0659824879	-0.9651151718	-1.0716543484	-0.299149
C	 0.9940794307	-1.9476591129	-1.3966639375	-0.314823
C	 0.4106763837	 0.1813983232	-2.6207540031	 0.119818
O	-0.4012779198	 1.0482181871	-2.8368394931	-0.273375
H	 1.2754549656	 1.4979942193	 0.6217921408	 0.10883
H	 0.0703741166	 2.1839290546	-0.482996376	 0.143619
H	-0.3808243175	 1.7745177654	 1.1786558401	 0.111467
H	-0.0728484625	-0.6508327617	 0.7014818673	 0.090428
H	-1.231935251	 0.0471064203	-0.423450368	 0.115987
H	 2.8155013333	-0.7493657297	-1.8262162315	 0.123598
H	 2.4282007218	-0.9073006721	-0.0512949594	 0.128685
H	 0.6017096775	-2.5768221202	-0.6058329056	 0.128796
H	 0.9984104646	-2.4103392043	-2.3781748891	 0.124193
H	 1.0569525802	-0.214913506	-3.4410027745	 0.062452
101.4111	144.5868	197.549	221.2012	281.7954	333.3476	341.4853	478.9304	538.6989	739.6788	780.5927	797.5475	830.1439	919.6305	939.7429	960.0171	1019.7884	1048.6504	1058.6854	1085.8654	1102.9527	1119.8847	1196.5092	1263.8857	1316.1585	1354.6728	1373.8391	1406.6903	1443.8012	1466.6728	1475.6839	1496.6463	1498.9182	1512.1728	1812.835	2838.8283	3031.1313	3038.9484	3071.8416	3103.4726	3130.813	3133.0002	3135.1711	3213.0129	3227.137
CCC1(CC1)C=O	CCC1(CC1)C=O	
InChI=1S/C6H10O/c1-2-6(5-7)3-4-6/h5H,2-4H2,1H3	InChI=1S/C6H10O/c1-2-6(5-7)3-4-6/h5H,2-4H2,1H3
