16
gdb 3184	5.00022	2.04396	1.83649	1.7202	60.5	-0.2468	0.077	0.3237	746.9394	0.136634	-325.725688	-325.718688	-325.717744	-325.756565	26.101	
C	 0.0115925698	 1.5300800913	 0.0237300167	-0.495535
C	 0.0146748734	 0.0175986524	-0.0078815456	 0.317557
C	 1.094138506	-0.6862501351	-0.7540964744	-0.274178
N	 1.0649264315	-0.7244048958	 0.718539016	-0.349999
C	-1.3206580474	-0.6658370335	 0.0722165147	 0.067044
C	-2.5266135296	-0.0531462401	 0.6436461542	-0.192835
O	-2.3596276981	-0.1629744379	-0.7730691144	-0.241391
H	 1.0023196948	 1.9273911691	-0.2157137064	 0.113365
H	-0.7019317401	 1.9229739761	-0.7065718336	 0.146328
H	-0.2723606612	 1.9071332109	 1.0127522582	 0.121962
H	 0.8942854569	-1.6379757182	-1.239430485	 0.11999
H	 1.8446362977	-0.0760350691	-1.2496135651	 0.112143
H	 1.7450630417	-0.0695111932	 1.0968914147	 0.230231
H	-1.2466581811	-1.7533420111	 0.100784912	 0.095862
H	-3.2962463789	-0.6919108451	 1.0747771625	 0.116922
H	-2.4945644953	 0.9600194394	 1.0389635455	 0.112533
81.3609	222.1462	240.3992	258.6755	351.9929	364.7998	449.6433	527.954	698.7142	836.7672	848.4039	860.46	940.0308	944.9243	973.7208	985.4605	1045.4202	1060.7476	1100.4194	1120.3236	1153.5345	1161.0325	1174.7074	1263.9465	1280.9399	1331.7163	1366.4435	1413.6465	1450.3058	1487.8834	1510.1569	1517.3257	1532.5637	3033.1286	3088.7954	3097.9057	3105.9447	3110.4011	3117.2533	3175.2969	3190.8011	3499.0984
CC1(CN1)C1CO1	C[C@]1(CN1)[C@H]1CO1	
InChI=1S/C5H9NO/c1-5(3-6-5)4-2-7-4/h4,6H,2-3H2,1H3	InChI=1S/C5H9NO/c1-5(3-6-5)4-2-7-4/h4,6H,2-3H2,1H3/t4-,5+/m1/s1
