11
gdb 3632	9.51838	1.97512	1.63571	1.7242	62.04	-0.2345	-0.0213	0.2132	695.2956	0.080327	-302.288351	-302.282618	-302.281674	-302.317702	21.341	
C	 0.1059881874	-1.1863876132	-0.0053687636	-0.442268
C	-0.0058775311	 0.0126203923	 0.002895377	 0.280792
C	-0.1160760536	 1.417890386	 0.0123132657	 0.248984
C	-1.2152611516	 2.2666992526	 0.0315744578	-0.317641
C	-0.6682525829	 3.5619613063	 0.031728009	-0.008271
N	 0.6646885365	 3.5403884785	 0.014091262	-0.206628
N	 0.9763971241	 2.2387067637	 0.0026157007	-0.269834
H	 0.1958448366	-2.2445633548	-0.012543282	 0.20046
H	-2.2510058288	 1.9714892764	 0.0435125825	 0.116271
H	-1.186922478	 4.5089833548	 0.0439133165	 0.117812
H	 1.9422987217	 1.9556746274	-0.0116818556	 0.280323
165.6686	171.0328	450.0878	522.6395	532.3818	569.4437	589.308	678.809	680.9229	705.8789	817.6103	898.3606	936.6257	1031.4969	1064.88	1147.0097	1247.2594	1285.129	1353.0721	1428.0461	1465.381	1581.8528	2234.9931	3250.5367	3281.6337	3501.1219	3668.16
C#CC1=CC=NN1	C#Cc1ccn[nH]1	
InChI=1S/C5H4N2/c1-2-5-3-4-6-7-5/h1,3-4H,(H,6,7)	InChI=1S/C5H4N2/c1-2-5-3-4-6-7-5/h1,3-4H,(H,6,7)
