17
gdb 4114	3.13885	1.56976	1.26188	1.3799	68.17	-0.2471	-0.0017	0.2454	1002.2987	0.140402	-400.944263	-400.935637	-400.934692	-400.97731	31.607	
C	 0.7255219288	 1.3987956765	-0.045301643	-0.393575
C	-0.0830559353	 0.1122922527	 0.059090521	-0.039218
C	 0.3732970495	-1.0115179672	-0.932467202	-0.326923
C	 1.1252801966	-1.6270150922	 0.2294035831	 0.342269
N	 2.1883310964	-2.2968040582	 0.3897603363	-0.236875
O	 2.7087855551	-2.739956617	-0.8382759496	-0.388471
C	 0.3656585051	-0.8170857333	 1.257798949	 0.077865
O	 1.0411966609	-0.2869621109	 2.3623939951	-0.42219
H	 1.8014910213	 1.1923516389	-0.090383673	 0.111338
H	 0.4592235707	 1.9552608716	-0.9493362699	 0.117235
H	 0.5479260629	 2.0410768529	 0.8219171609	 0.130315
H	-1.1538269643	 0.3297153996	 0.0470858169	 0.07451
H	-0.4448241195	-1.6388771557	-1.298150096	 0.122759
H	 0.9896536147	-0.7085393975	-1.7822237126	 0.128387
H	 3.5017818963	-3.2135448527	-0.5643765831	 0.307979
H	-0.5007376682	-1.3683360114	 1.6436581755	 0.104147
H	 1.9774802991	-0.2456183162	 2.1397056415	 0.290448
70.3733	132.0439	211.1187	222.1382	240.7648	257.4465	320.8587	362.0447	403.7179	492.3658	554.4044	610.4585	720.8896	804.2703	812.359	877.7956	892.7071	984.3326	1031.6053	1055.4034	1082.151	1119.7345	1161.3832	1177.4916	1202.9543	1247.1158	1279.5492	1307.5117	1361.7094	1402.0071	1413.0546	1427.6468	1466.5507	1496.5997	1498.3847	1776.9801	3030.3563	3033.3388	3060.242	3073.7235	3097.3538	3113.3984	3115.5988	3812.3448	3815.0964
CC1CC(=NO)C1O	C[C@H]1CC(=NO)[C@H]1O	
InChI=1S/C5H9NO2/c1-3-2-4(6-8)5(3)7/h3,5,7-8H,2H2,1H3	InChI=1S/C5H9NO2/c1-3-2-4(6-8)5(3)7/h3,5,7-8H,2H2,1H3/t3-,5-/m0/s1
