15
gdb 2514	3.36729	2.05205	1.35559	2.3015	63.86	-0.2523	-0.0319	0.2203	878.6883	0.121871	-308.496245	-308.487945	-308.487001	-308.529245	28.658	
C	-0.0636270618	 1.5688181	 0.0006096147	-0.394556
C	 0.0338395799	 0.0419201192	 0.0034651812	-0.188262
C	 0.7147040108	-0.529405835	-1.2744384172	-0.235162
C	 2.193708416	-0.1314267115	-1.2742037923	 0.169354
O	 2.6594398181	 0.7438948774	-1.9518642392	-0.243315
C	 0.6072320489	-1.9815885928	-1.3386113639	 0.288737
C	 0.5582281775	-3.1824291965	-1.3685306252	-0.431443
H	 0.9203282291	 2.0402400043	-0.0792144607	 0.136644
H	-0.6670361355	 1.9229332282	-0.8416704588	 0.125036
H	-0.5337000361	 1.9233093752	 0.9224196201	 0.119676
H	 0.5892894935	-0.3089371483	 0.8817317041	 0.113899
H	-0.9629592959	-0.4042620254	 0.0740273652	 0.1216
H	 0.2585727521	-0.0708846305	-2.1595424414	 0.124108
H	 2.8129696592	-0.7140285072	-0.5559465243	 0.091391
H	 0.4992828242	-4.2420757571	-1.4102483923	 0.202293
57.0065	99.3642	144.4982	178.6249	228.5994	295.5604	370.3077	452.1235	503.2165	524.2877	634.9261	650.9693	773.0996	874.0873	939.4625	975.2716	1018.1729	1078.8891	1105.656	1146.6117	1245.743	1292.301	1319.6704	1359.5152	1416.0263	1419.6587	1489.5221	1498.7519	1505.5543	1836.5566	2234.406	2886.0082	3036.7206	3041.2157	3050.6991	3080.5735	3110.3617	3118.1111	3502.9458
CCC(C=O)C#C	CC[C@@H](C=O)C#C	
InChI=1S/C6H8O/c1-3-6(4-2)5-7/h1,5-6H,4H2,2H3	InChI=1S/C6H8O/c1-3-6(4-2)5-7/h1,5-6H,4H2,2H3/t6-/m0/s1
