11
gdb 1829	6.7284	2.29425	1.7296	2.2858	49.18	-0.2757	-0.0088	0.2669	656.478	0.080572	-376.633716	-376.628022	-376.627078	-376.663421	20.546	
N	-0.11783594	 1.2995871417	 0.0078231545	-0.530756
C	 0.0010466396	 0.0400918628	 0.0005029606	 0.378478
C	-1.1662911056	-0.9320094033	 0.0024551207	-0.145666
O	-0.5756466883	-2.2384044636	-0.0076645771	-0.234161
C	 0.7800556452	-2.1438614023	-0.0157182743	 0.501163
O	 1.5296929571	-3.0733265454	-0.0239866908	-0.372209
N	 1.1094522531	-0.7901134421	-0.0101738862	-0.411147
H	 0.7843249748	 1.7762869356	 0.0050617084	 0.221313
H	-1.7833620146	-0.816519235	 0.8974369209	 0.15775
H	-1.793884406	-0.8074975269	-0.8839605177	 0.157719
H	 2.0713698247	-0.4929453614	-0.013910399	 0.277516
116.0859	191.3349	374.409	511.886	538.3754	551.2236	639.3814	712.7869	769.5672	860.7677	906.2402	946.1343	1032.9153	1072.3951	1110.7727	1187.2488	1203.4728	1350.1161	1366.2266	1401.4558	1498.0086	1786.2319	1914.5348	3068.4282	3115.4052	3476.2583	3665.2524
N=C1COC(=O)N1	[NH][C]1COC(=O)N1	
InChI=1S/C3H4N2O2/c4-2-1-7-3(6)5-2/h1H2,(H2,4,5,6)	InChI=1S/C3H4N2O2/c4-2-1-7-3(6)5-2/h1H2,(H2,4,5,6)
