18
gdb 1517	7.0586	1.25628	1.1677	3.3798	65.8	-0.2406	0.0374	0.278	1080.9387	0.158975	-327.023478	-327.014529	-327.013585	-327.058293	30.558	
C	 0.3385500368	 1.3657233986	 0.1040406305	-0.371115
C	-0.3914341209	 0.0531185705	-0.1917738956	-0.143228
N	 0.1164813329	-0.6312511101	-1.3702456548	-0.315438
C	 0.9339713592	-1.7239086288	-1.2977663802	 0.422108
O	 1.2356723401	-2.254152808	-0.2422858873	-0.377514
C	 1.4587818606	-2.2228501985	-2.644432889	-0.296398
C	 1.7218949673	-3.7291580844	-2.6359809873	-0.366383
H	 1.4019443825	 1.1826035764	 0.2828206937	 0.133682
H	 0.2486887743	 2.0703057005	-0.7302567254	 0.108457
H	-0.0823447711	 1.8454625476	 0.9935475245	 0.118952
H	-0.2689589419	-0.6463888002	 0.6377032535	 0.149695
H	-1.4648508243	 0.236502712	-0.321316423	 0.102717
H	-0.053435629	-0.2191724285	-2.2733090834	 0.238772
H	 0.767923535	-1.9469285713	-3.4499796526	 0.095985
H	 2.3943970878	-1.6825630042	-2.8422008791	 0.12656
H	 2.3553247185	-3.9909318795	-1.7862842806	 0.145513
H	 0.7883780784	-4.2915057453	-2.5382103608	 0.121116
H	 2.2148742037	-4.0440911768	-3.5599250232	 0.10652
30.8403	40.0756	95.6476	192.2764	208.9246	258.1889	328.3703	368.9478	451.3595	473.3149	590.7692	683.7932	778.0474	810.703	896.559	905.1737	1007.8635	1057.3333	1091.8918	1096.5105	1132.832	1173.0659	1229.1443	1287.3664	1322.9722	1371.4457	1396.6027	1407.7379	1410.1759	1466.2498	1480.317	1492.1866	1493.0843	1501.3324	1505.2963	1541.596	1775.9654	3021.8205	3033.4087	3033.9735	3048.1327	3059.1497	3096.0939	3113.9333	3115.821	3127.5476	3140.2494	3638.0845
CCNC(=O)CC	CCNC(=O)CC	
InChI=1S/C5H11NO/c1-3-5(7)6-4-2/h3-4H2,1-2H3,(H,6,7)	InChI=1S/C5H11NO/c1-3-5(7)6-4-2/h3-4H2,1-2H3,(H,6,7)
