7
gdb 172	10.39572	10.14933	5.13552	1.126	31.56	-0.3054	-0.0335	0.2719	253.56	0.046608	-262.056533	-262.053124	-262.05218	-262.082625	11.003	
O	-0.022420118	 1.2892703108	 0.009242646	-0.147847
C	 1.2611578461	 1.6485704893	-0.0011762231	 0.126535
N	 2.0953269928	 0.6569197707	-0.0144354712	-0.262467
C	 1.2326777791	-0.4152061938	-0.0118745255	 0.063072
N	-0.0356282186	-0.1110300295	 0.0017536228	-0.107596
H	 1.476729655	 2.7067920579	 0.0024315419	 0.172549
H	 1.5613515236	-1.4439634054	-0.020558661	 0.155755
638.8869	672.9662	890.5407	901.9243	933.5762	967.483	979.9135	1143.9892	1155.1548	1254.6888	1321.2167	1464.6823	1595.0875	3266.0189	3272.4464
O1C=NC=N1	o1cncn1	
InChI=1S/C2H2N2O/c1-3-2-5-4-1/h1-2H	InChI=1S/C2H2N2O/c1-3-2-5-4-1/h1-2H
