17
gdb 3449	4.25499	2.69194	1.99803	1.5871	62.53	-0.2504	0.0798	0.3301	691.3732	0.150654	-309.718177	-309.711849	-309.710905	-309.748	25.221	
O	 0.4274407041	 0.9742662208	-0.7567867229	-0.437937
C	 0.0231674876	-0.1331817577	 0.0321692144	 0.149366
C	 0.4455848428	-0.0394385065	 1.5206509634	-0.255461
C	-0.5544509148	-0.9285281644	 2.2883056644	-0.217755
C	-1.8341256801	-0.8776607951	 1.456776175	-0.019607
C	-2.304504577	 0.4783815856	 0.9965513831	-0.302323
C	-1.4764188932	-0.3900360893	 0.07267541	-0.05725
H	-0.1085337886	 1.7279935395	-0.485929125	 0.274811
H	 0.5128275774	-0.9950949812	-0.43652023	 0.087492
H	 1.4866071583	-0.3338141747	 1.6710484021	 0.102712
H	 0.3674893707	 1.0052631878	 1.8425902814	 0.096049
H	-0.1933551662	-1.9630042456	 2.3280117416	 0.101615
H	-0.7003083851	-0.6008702603	 3.3236056201	 0.097601
H	-2.5771555475	-1.6542778196	 1.6012074772	 0.081309
H	-3.3558346702	 0.5826213957	 0.7522699016	 0.112195
H	-1.8719034318	 1.3700056387	 1.441438662	 0.103241
H	-1.9503690563	-0.7915794936	-0.8158436684	 0.083942
149.8804	243.7021	297.9473	355.591	404.8668	526.2196	578.5158	630.3007	767.3879	825.4737	837.0287	861.7624	929.9596	953.4688	974.6471	988.1104	1036.9548	1062.2816	1083.5884	1091.6215	1111.0394	1133.2563	1177.1122	1205.9276	1222.7608	1274.9273	1309.2929	1322.9771	1340.1606	1351.6728	1393.6468	1432.3707	1484.7038	1493.9775	1514.4236	3032.1216	3037.9941	3047.8653	3069.6958	3105.8426	3123.547	3164.0939	3174.2803	3207.7928	3798.6253
OC1CCC2CC12	O[C@H]1CC[C@H]2C[C@@H]12	
InChI=1S/C6H10O/c7-6-2-1-4-3-5(4)6/h4-7H,1-3H2	InChI=1S/C6H10O/c7-6-2-1-4-3-5(4)6/h4-7H,1-3H2/t4-,5+,6-/m0/s1
