17
gdb 2180	3.60712	2.7382	1.79845	0.7072	59.22	-0.252	0.0647	0.3167	732.0326	0.149853	-346.865438	-346.858287	-346.857343	-346.896859	26.8	
O	 0.062749884	 1.3490863568	-0.2084888059	-0.445874
C	 0.0068018658	-0.0518667516	-0.0295148959	 0.132152
C	 0.7172598746	-0.5895672203	 1.2225585206	-0.237222
C	 0.1153912651	-1.9920021246	 1.3792361953	-0.209082
C	-1.3835188557	-1.7850878686	 1.0610724801	-0.213261
C	-1.457354031	-0.585068323	 0.0938266041	 0.09671
O	-2.2979543165	 0.4135329297	 0.6724892424	-0.442581
H	-0.3876787848	 1.7288600678	 0.5559826649	 0.274502
H	 0.4714413337	-0.4811295059	-0.9245497302	 0.085633
H	 1.8061675411	-0.5755860555	 1.1322377716	 0.099583
H	 0.4452477428	 0.0353964959	 2.0840261999	 0.096322
H	 0.5708252071	-2.6743187836	 0.651205683	 0.099502
H	 0.2784684642	-2.425969104	 2.3689537417	 0.099702
H	-1.8592334619	-2.6816866145	 0.6566662807	 0.098257
H	-1.9324842795	-1.5055301788	 1.9654596405	 0.1191
H	-1.8520540459	-0.8707478304	-0.8896247998	 0.064428
H	-2.4088167432	 1.1006686204	 0.0055587573	 0.282129
55.2077	147.2527	214.4518	297.2974	391.1274	417.6432	539.9277	567.2686	590.657	662.6208	793.5762	832.3631	901.6267	903.4042	936.9159	1009.707	1018.3972	1050.307	1105.3699	1117.8841	1163.3103	1193.3389	1229.42	1267.7641	1281.4798	1311.8941	1318.02	1340.6326	1348.2455	1364.7283	1423.5435	1440.1997	1482.121	1489.8639	1507.2886	3009.4585	3022.4177	3035.5844	3050.6395	3060.5634	3093.5295	3101.1894	3110.453	3779.5226	3799.5241
OC1CCCC1O	O[C@H]1CCC[C@H]1O	
InChI=1S/C5H10O2/c6-4-2-1-3-5(4)7/h4-7H,1-3H2	InChI=1S/C5H10O2/c6-4-2-1-3-5(4)7/h4-7H,1-3H2/t4-,5+
