14
gdb 3002	7.47141	1.65123	1.50865	2.0534	55.23	-0.2585	0.0008	0.2592	818.9209	0.113667	-361.717868	-361.710648	-361.709704	-361.749539	24.625	
C	 0.2369000633	 1.4311486426	 0.0949913783	-0.241946
O	 0.2724071223	-0.0029447599	 0.1097277065	-0.233208
C	 0.3517211412	-0.5886779349	-1.0959126668	 0.465638
O	 0.4045736859	 0.0136746336	-2.1438028328	-0.387205
C	 0.3719862397	-2.0745675339	-0.9811903487	-0.128647
C	-0.4849249751	-2.8224543013	-1.9532467185	-0.218907
N	 0.9648375399	-2.8174050643	-2.1036864084	-0.304336
H	 1.1362498469	 1.8323253321	-0.3783793091	 0.145017
H	-0.6385368016	 1.7883509215	-0.4529708168	 0.142977
H	 0.1848683308	 1.7364525551	 1.1398016102	 0.137004
H	 0.5514734258	-2.4766700064	 0.0091615232	 0.111851
H	-0.9196516003	-3.7675902943	-1.6419877213	 0.128426
H	-1.0818410407	-2.2288534233	-2.6393127893	 0.133821
H	 1.215683812	-2.1330874067	-2.8173889565	 0.249516
79.4806	117.9664	163.755	205.7724	306.5536	330.3645	424.5327	683.9491	774.1476	827.9835	872.3426	907.7815	978.8689	1014.0277	1036.0181	1118.0478	1138.505	1178.3909	1179.8551	1208.916	1241.9481	1287.343	1319.0702	1410.2173	1476.8707	1482.5173	1496.7972	1498.4378	1800.2998	3054.3055	3117.2509	3130.0196	3162.8644	3182.5218	3211.3492	3474.8517
COC(=O)C1CN1	COC(=O)[C@H]1CN1	
InChI=1S/C4H7NO2/c1-7-4(6)3-2-5-3/h3,5H,2H2,1H3	InChI=1S/C4H7NO2/c1-7-4(6)3-2-5-3/h3,5H,2H2,1H3/t3-/m1/s1
