16
gdb 3321	6.32762	1.94851	1.74871	2.1321	61.1	-0.2278	0.0798	0.3075	760.7166	0.137056	-325.711441	-325.704681	-325.703737	-325.74219	24.957	
C	 0.1213818524	 1.3189755254	 0.1070885933	-0.234753
O	-0.3057656412	 0.0187575905	-0.2275001108	-0.23675
C	 0.502265521	-0.5969769706	-1.1850105575	 0.18041
C	 1.9260364119	-1.1583874927	-0.7829101896	-0.268053
C	 1.4534890966	-2.5232285093	-1.2923834432	-0.044731
N	 0.3185716072	-2.8949911597	-0.419361703	-0.318631
C	 0.0843948927	-2.0060225188	-1.5844439865	-0.099025
H	 1.1266580559	 1.3206629632	 0.5548781651	 0.107857
H	 0.1364885476	 1.982769691	-0.7727454398	 0.099587
H	-0.5878008843	 1.7168678747	 0.836728364	 0.127691
H	 0.5991436282	 0.0398281803	-2.0789766286	 0.064135
H	 2.7397554395	-0.7097807537	-1.3558268117	 0.098713
H	 2.1532337331	-1.1368445933	 0.2851773654	 0.112803
H	 2.0289348238	-3.2734907052	-1.8193662518	 0.093166
H	 0.0086440535	-3.8237134868	-0.7059084444	 0.227307
H	-0.6244781278	-2.2818078047	-2.3554507309	 0.090275
99.3799	151.5096	191.5631	284.2753	395.0498	448.714	561.6649	680.4662	793.511	827.2989	848.0169	901.679	956.4925	992.3129	1009.1582	1029.884	1061.5448	1100.3322	1128.479	1156.4145	1169.9803	1183.9006	1195.0628	1242.6784	1260.2586	1299.2768	1335.449	1377.4456	1400.3769	1467.6516	1483.7771	1488.3262	1507.7966	2966.3995	2975.0064	3018.0345	3070.2726	3115.3815	3132.13	3185.5294	3200.8268	3467.3524
COC1CC2NC12	CO[C@H]1C[C@H]2N[C@@H]12	
InChI=1S/C5H9NO/c1-7-4-2-3-5(4)6-3/h3-6H,2H2,1H3	InChI=1S/C5H9NO/c1-7-4-2-3-5(4)6-3/h3-6H,2H2,1H3/t3-,4+,5-/m1/s1
