12
gdb 2872	7.93855	1.83398	1.51817	3.2089	59.12	-0.2584	-0.0526	0.2058	745.8735	0.091134	-323.391458	-323.38525	-323.384306	-323.422014	21.385	
N	 0.0562775916	-1.1337964037	-0.0529288616	-0.325528
C	-0.0067836832	 0.0221356835	-0.0157835927	 0.207721
C	-0.0383075137	 1.4392604457	 0.0310094549	 0.189551
C	-1.1146287867	 2.2289883401	 0.0277498177	-0.193294
C	-0.6835712523	 3.6624782059	 0.0878333648	-0.101064
O	 0.7388527897	 3.6289967792	 0.1264275992	-0.261431
C	 1.214220666	 2.2905105179	 0.0942749369	-0.155423
H	-2.1468247226	 1.9077918328	-0.0116548592	 0.136642
H	-1.0263204407	 4.2337504233	-0.7891678599	 0.123944
H	-1.0756519067	 4.1744725951	 0.9806210655	 0.123961
H	 1.8114942718	 2.0751015811	 0.9919218073	 0.12747
H	 1.8603107469	 2.134958609	-0.781681743	 0.127449
80.5382	164.2914	168.047	381.929	521.0302	560.683	562.4967	772.8957	852.2524	904.5341	922.394	975.5715	1026.2163	1064.0418	1113.0516	1173.893	1194.6842	1225.103	1283.1694	1360.0779	1393.6114	1511.0337	1527.0783	1691.6337	2343.0271	2979.2145	2996.8312	2997.2123	3022.0796	3234.5122
N#CC1=CCOC1	N#CC1=CCOC1	
InChI=1S/C5H5NO/c6-3-5-1-2-7-4-5/h1H,2,4H2	InChI=1S/C5H5NO/c6-3-5-1-2-7-4-5/h1H,2,4H2
