14
gdb 4385	3.61574	2.02122	1.30697	4.5242	68.8	-0.2303	-0.0537	0.1766	888.3413	0.107709	-382.612683	-382.605818	-382.604874	-382.643764	25.633	
C	 0.0684229213	 1.4842941147	 0.0228900625	-0.469245
C	-0.0736784453	-0.0021287071	 0.0027229556	 0.408772
C	-1.2275891992	-0.6943078554	-0.1536653974	-0.252492
C	-1.1723546106	-2.1201506067	-0.1471525078	-0.036165
C	 0.0075768734	-2.768841536	 0.0118933023	-0.267856
C	 1.2455041415	-2.0397870669	 0.1796907195	 0.422221
O	 2.353438872	-2.4778765604	 0.3291624008	-0.34274
O	 1.1059420155	-0.6318234078	 0.161740291	-0.25902
H	 0.743229776	 1.8136059405	-0.7744010585	 0.153484
H	-0.9005163437	 1.9687523676	-0.1080376034	 0.135831
H	 0.5068530924	 1.8124412974	 0.9713448511	 0.153484
H	-2.1623633071	-0.1656707086	-0.2796156251	 0.109717
H	-2.0905215068	-2.6863079531	-0.2716114138	 0.119172
H	 0.0884314305	-3.8479400781	 0.0221203333	 0.124838
136.0238	161.2204	191.0782	298.886	412.2437	490.341	524.0766	548.7034	604.4727	732.6616	743.979	810.3465	837.7214	863.8232	993.3284	1011.2591	1037.0823	1052.0149	1064.307	1105.8612	1193.3184	1244.8908	1383.613	1414.3863	1432.5526	1468.5827	1486.1285	1598.0017	1682.917	1845.9812	3041.013	3097.8173	3142.2572	3177.6907	3223.058	3227.2594
CC1=CC=CC(=O)O1	Cc1cccc(=O)o1	
InChI=1S/C6H6O2/c1-5-3-2-4-6(7)8-5/h2-4H,1H3	InChI=1S/C6H6O2/c1-5-3-2-4-6(7)8-5/h2-4H,1H3
