13
gdb 938	6.06085	2.64818	1.86411	2.4107	60.93	-0.2484	-0.0362	0.2122	657.9913	0.104172	-303.56035	-303.554385	-303.553441	-303.590692	21.248	
C	-0.0394753831	 1.5047123368	-0.0002859858	-0.469926
C	-0.0171726198	 0.0019997767	 0.0304980631	 0.335013
N	-0.2540431766	-0.6324129324	-1.1278172677	-0.294011
C	-0.2336298231	-1.9629871857	-1.0974439689	 0.069416
N	-0.0036759894	-2.748903645	-0.0432644611	-0.251437
C	 0.2306105513	-2.1061476291	 1.1032151565	 0.025925
C	 0.2356449935	-0.7205766302	 1.1966700357	-0.174593
H	 0.1628861532	 1.9347699961	 0.9831665219	 0.122444
H	 0.7053901761	 1.8769712369	-0.7106177048	 0.148789
H	-1.0147185443	 1.8588623671	-0.3488157188	 0.148788
H	-0.426772525	-2.4684494124	-2.041317842	 0.117859
H	 0.4209712899	-2.7252336017	 1.97749527	 0.117539
H	 0.4285847273	-0.2213062372	 2.1393388119	 0.104193
48.0612	194.5061	352.1889	377.9668	508.3377	544.8363	690.4612	772.7477	832.3911	855.3057	989.9901	994.7152	1019.9097	1024.1444	1062.2451	1103.8227	1197.6712	1240.1266	1277.8253	1341.0163	1407.9107	1421.2184	1473.9569	1481.343	1504.6636	1597.9709	1622.4219	3044.4937	3106.6638	3131.3402	3150.7778	3158.6652	3196.3857
CC1=NC=NC=C1	Cc1ncncc1	
InChI=1S/C5H6N2/c1-5-2-3-6-4-7-5/h2-4H,1H3	InChI=1S/C5H6N2/c1-5-2-3-6-4-7-5/h2-4H,1H3
