17
gdb 2227	4.61705	2.73373	2.15762	0.2494	68.57	-0.2226	0.0252	0.2478	678.0911	0.149559	-272.587059	-272.580724	-272.57978	-272.616667	25.381	
C	-0.0346388895	 1.5071798919	 0.021303117	-0.48131
C	 0.0528200861	-0.0003645502	 0.0035284103	 0.359222
C	-0.8167559638	-0.8051446363	 0.9362279365	-0.317137
C	 0.6904247363	-0.7983944725	 1.135585127	-0.107204
C	 1.4144719295	-1.9229455202	 0.4773282402	-0.068336
C	 1.2684843377	-1.8930066991	-0.849668866	-0.081375
C	 0.4695444825	-0.6893273598	-1.3037542911	-0.322671
H	 0.9052892352	 1.9639249645	-0.3102416799	 0.114698
H	-0.8296938225	 1.8683869357	-0.6424547797	 0.115456
H	-0.2514496919	 1.8820180641	 1.0268470711	 0.11244
H	-1.4178977855	-0.2444646021	 1.6459507417	 0.103162
H	-1.2719305511	-1.7253177876	 0.5830098793	 0.106438
H	 1.0987087426	-0.3196829857	 2.0197220949	 0.080079
H	 1.9531624084	-2.6818365052	 1.0338948569	 0.090775
H	 1.6506729272	-2.6343691688	-1.5423412861	 0.08953
H	-0.3952834463	-0.9711858092	-1.9188307604	 0.105721
H	 1.079530025	-0.0182311495	-1.9260889717	 0.100512
197.1859	211.7117	300.1234	362.5697	383.7912	494.2483	577.8514	720.3212	746.0159	763.3072	842.7524	869.9444	917.9626	939.4303	957.2596	972.5645	997.1152	1022.5092	1053.724	1070.9897	1080.0808	1104.4737	1143.8366	1184.8523	1246.1601	1275.799	1315.9789	1368.9229	1395.9759	1420.4067	1470.9771	1484.0825	1490.566	1502.2396	1669.1258	2999.1893	3018.8629	3034.5591	3076.136	3094.7194	3115.5399	3159.392	3183.2514	3204.1298	3208.3044
CC12CC1C=CC2	C[C@]12C[C@H]1C=CC2	
InChI=1S/C7H10/c1-7-4-2-3-6(7)5-7/h2-3,6H,4-5H2,1H3	InChI=1S/C7H10/c1-7-4-2-3-6(7)5-7/h2-3,6H,4-5H2,1H3/t6-,7+/m1/s1
