7
gdb 777	10.15858	4.07493	2.90831	2.925	33.27	-0.2987	-0.059	0.2397	392.3951	0.038735	-353.321142	-353.31678	-353.315835	-353.348826	14.809	
O	-0.0233042729	-0.0429492991	 0.0031966073	-0.366844
C	-0.0174936907	 1.1503658658	 0.0096630126	 0.563114
N	-1.0598177369	 2.0604223904	 0.0286019038	-0.310596
N	-0.6069342387	 3.3278243252	 0.0292856144	-0.005923
N	 0.6429049992	 3.3142306992	 0.0126586401	 0.032646
O	 1.0851635204	 1.9727190143	-0.0007666063	-0.222927
H	-2.0466916204	 1.8645117442	 0.040824288	 0.31053
228.0985	460.7372	476.2805	682.6906	750.8149	765.0093	774.8219	976.879	1026.7629	1105.5983	1228.7543	1385.2379	1531.2239	1925.195	3684.7154
O=C1NN=NO1	O=c1[nH]nno1	
InChI=1S/CHN3O2/c5-1-2-3-4-6-1/h(H,2,4,5)	InChI=1S/CHN3O2/c5-1-2-3-4-6-1/h(H,2,4,5)
