16
gdb 1077	6.54145	1.94185	1.69169	2.0863	66.65	-0.1997	0.0474	0.247	778.2199	0.138541	-288.67872	-288.671959	-288.671014	-288.709817	25.042	
C	-0.0101030612	 1.5501571559	 0.0094230393	-0.366851
C	-0.0229000704	 0.0185720677	 0.0030609364	-0.158864
N	-1.3619564697	-0.5456040765	 0.0126740767	 0.042952
C	-2.1091766658	-0.8069394127	 1.1355678136	-0.098083
C	-3.3539935335	-1.2381662383	 0.7383736332	-0.166649
C	-3.3658774707	-1.2342477079	-0.6834468624	-0.166679
C	-2.1279575594	-0.8004775649	-1.0989940792	-0.098067
H	 1.0195025582	 1.9218840208	 0.0015792992	 0.117446
H	-0.5266580561	 1.9461739943	-0.8694871731	 0.130326
H	-0.5104352897	 1.9387496282	 0.9009445425	 0.130307
H	 0.496313119	-0.3614243127	-0.8826668441	 0.118651
H	 0.512274253	-0.368883789	 0.8759796766	 0.11865
H	-1.6854719789	-0.6668936599	 2.1179085209	 0.1083
H	-4.1580955852	-1.5368613101	 1.3933612054	 0.090124
H	-4.1808335023	-1.5293357132	-1.326545324	 0.090127
H	-1.7208067273	-0.6547013516	-2.087482741	 0.10831
53.8844	127.7736	216.047	362.5631	386.1123	623.2983	635.2815	658.8572	679.6238	740.4711	794.2624	795.4681	846.068	885.4533	944.1355	999.8273	1080.394	1081.5209	1103.5221	1115.5376	1126.9857	1270.201	1309.0732	1315.1671	1390.8456	1410.9658	1423.0494	1435.9	1482.1031	1489.7574	1506.2086	1536.2176	1560.6923	3041.7306	3047.9259	3086.4634	3115.5211	3125.4776	3236.8256	3246.1659	3257.5901	3267.318
CCN1C=CC=C1	CCn1cccc1	
InChI=1S/C6H9N/c1-2-7-5-3-4-6-7/h3-6H,2H2,1H3	InChI=1S/C6H9N/c1-2-7-5-3-4-6-7/h3-6H,2H2,1H3
