14
gdb 1162	3.62044	2.08234	1.88533	2.9908	58.2	-0.2771	-0.0513	0.2257	745.6848	0.110848	-324.605178	-324.597169	-324.596225	-324.637255	27.643	
C	 0.0205168309	 1.6071031674	-0.0590987078	-0.406514
C	 0.0012568768	 0.0701474185	-0.0659964338	-0.006303
C	 0.6406561096	-0.5181288384	 1.2202063141	-0.414664
C	-1.4463032112	-0.4651286918	-0.1246781634	 0.161312
O	-2.4145010785	 0.2171227452	 0.0591966083	-0.230749
C	 0.7095533008	-0.458982679	-1.2386887854	 0.257608
N	 1.2496624959	-0.8890717647	-2.1659556072	-0.325194
H	 1.045068106	 1.9742185253	 0.0350399429	 0.133109
H	-0.4136495597	 2.0080496707	-0.9771910958	 0.146733
H	-0.5716172655	 1.9716226491	 0.7825631855	 0.142857
H	 0.1196075721	-0.1264460415	 2.0980159755	 0.142071
H	 0.5819438889	-1.6099444545	 1.2323638277	 0.142477
H	 1.6935323182	-0.2323288531	 1.2778141839	 0.149587
H	-1.5184044144	-1.5571235231	-0.3162751044	 0.107669
72.9101	170.1301	184.63	207.5327	243.7542	281.6191	324.7878	356.3182	522.4869	561.6946	586.9105	748.0036	874.804	915.9945	962.6686	1017.3629	1048.5687	1165.878	1220.0216	1240.0398	1397.2534	1405.5425	1427.5667	1478.8604	1483.1931	1496.0552	1505.6777	1844.0938	2351.0275	2909.4066	3047.3146	3060.4122	3126.4468	3132.8312	3139.9952	3145.067
CC(C)(C=O)C#N	CC(C)(C=O)C#N	
InChI=1S/C5H7NO/c1-5(2,3-6)4-7/h4H,1-2H3	InChI=1S/C5H7NO/c1-5(2,3-6)4-7/h4H,1-2H3
