12
gdb 3761	4.01135	3.62779	1.92817	2.3546	51.14	-0.2387	0.0262	0.2649	619.975	0.092242	-356.724118	-356.717838	-356.716893	-356.754601	21.869	
C	-0.0148741262	 1.443112465	-0.0619185606	-0.329661
N	 0.0291201143	-0.0001062166	 0.0030963323	-0.019293
N	 0.0595976453	-0.7718153606	-1.1299142819	-0.265299
C	 0.0932149745	-1.9924777966	-0.6344955229	 0.040135
N	 0.0868843808	-2.0799761086	 0.7289755568	-0.377699
C	 0.0463287718	-0.8111845667	 1.0756207404	 0.461974
O	 0.023233801	-0.3143663535	 2.3187886995	-0.422246
H	 0.8670341808	 1.8240246619	-0.5833757458	 0.152314
H	-0.9118283139	 1.7692735427	-0.5947222197	 0.152314
H	-0.0333768505	 1.8336646293	 0.9560464813	 0.159279
H	 0.1235927256	-2.8616983065	-1.2744796751	 0.126732
H	 0.0416076164	-1.0708898599	 2.9184450458	 0.321451
66.4058	182.1686	281.2559	321.4408	402.0157	476.8891	670.9004	680.1447	739.631	779.9879	902.5699	985.6398	1025.7714	1144.311	1156.2423	1231.2977	1273.4638	1293.837	1336.6054	1451.1543	1476.4214	1480.137	1512.8502	1593.1408	1627.2111	3054.0569	3120.3054	3158.5841	3259.0744	3805.9461
CN1N=CN=C1O	Cn1ncnc1O	
InChI=1S/C3H5N3O/c1-6-3(7)4-2-5-6/h2H,1H3,(H,4,5,7)	InChI=1S/C3H5N3O/c1-6-3(7)4-2-5-6/h2H,1H3,(H,4,5,7)
