10
gdb 4238	4.59982	2.17231	2.05877	2.2145	36.25	-0.2957	0.0685	0.3642	624.4932	0.062871	-490.793044	-490.786942	-490.785997	-490.823619	21.176	
F	-0.3464479023	 0.1329459618	-0.2367365318	-0.070718
C	-0.0606103156	 1.4138706484	 0.0098256869	 0.278583
F	 1.2561982277	 1.5084432765	 0.2303427249	-0.072401
F	-0.3392881323	 2.1264178915	-1.0933868302	-0.07556
C	-0.8468541167	 1.9535184395	 1.182426367	-0.077404
C	-2.1169124751	 1.338360664	 1.5766226566	-0.169683
O	-0.9132779757	 1.1060673778	 2.3144501276	-0.213155
H	-0.6547792254	 3.0075171106	 1.377251504	 0.128361
H	-2.8634568469	 1.9507695829	 2.0775268123	 0.130882
H	-2.4916281976	 0.483096097	 1.0206110427	 0.141096
74.93	214.772	243.1819	384.0686	437.3147	528.4722	588.1094	652.7472	796.1222	892.5132	933.1125	1013.7124	1096.5206	1163.0516	1166.8067	1189.7574	1206.1357	1283.9871	1308.0242	1453.8732	1526.5982	3105.7517	3135.6933	3202.0647
FC(F)(F)C1CO1	FC(F)(F)[C@H]1CO1	
InChI=1S/C3H3F3O/c4-3(5,6)2-1-7-2/h2H,1H2	InChI=1S/C3H3F3O/c4-3(5,6)2-1-7-2/h2H,1H2/t2-/m1/s1
