14
gdb 2663	5.57057	1.40321	1.13673	2.6799	62.4	-0.25	0.0199	0.2699	997.3095	0.11072	-324.528297	-324.520058	-324.519114	-324.561474	27.555	
C	-0.3966673976	 1.1132475592	 0.3056148508	-0.25089
O	 0.632177514	 0.1450945692	 0.1358199884	-0.194718
C	 0.5967000941	-0.8908510617	 0.9954670473	 0.144707
N	 1.4677521338	-1.7968741799	 0.9175541656	-0.242486
C	 1.4258154349	-2.9157055524	 1.8498126188	-0.257027
C	 0.355488425	-2.9386468113	 2.8527556689	 0.287263
C	-0.529105584	-2.9402160527	 3.6677243178	-0.472087
H	-0.3516475428	 1.5778742528	 1.2980180866	 0.128444
H	-0.2271885253	 1.8771374628	-0.4540503676	 0.146009
H	-1.3904927401	 0.6738530432	 0.1572475972	 0.128471
H	-0.2226046026	-0.8603225746	 1.7247593683	 0.09367
H	 1.3772700816	-3.8392172612	 1.2574470135	 0.144003
H	 2.3953611471	-2.955230352	 2.364152012	 0.144002
H	-1.3020390281	-2.9617896814	 4.3958410125	 0.20064
52.3031	114.3095	124.1314	163.9514	231.8258	281.0242	331.8722	411.4078	501.6681	614.7727	652.9953	669.8957	921.2604	957.7695	1017.6917	1021.9743	1071.195	1178.1785	1179.6257	1266.3793	1282.9368	1349.5136	1411.6923	1467.6283	1488.0538	1495.2769	1501.4292	1775.9339	2226.1983	3014.12	3016.2634	3034.93	3045.7497	3079.0374	3144.7877	3502.8956
COC=NCC#C	COC=NCC#C	
InChI=1S/C5H7NO/c1-3-4-6-5-7-2/h1,5H,4H2,2H3	InChI=1S/C5H7NO/c1-3-4-6-5-7-2/h1,5H,4H2,2H3
