13
gdb 3571	5.46676	3.07046	2.84264	2.8075	52.09	-0.2451	0.0511	0.2962	534.309	0.10265	-344.369744	-344.364725	-344.363781	-344.398293	19.836	
C	 0.0106407245	 1.5114083908	 0.0851940359	-0.081565
O	 1.4634178676	 1.5100049593	 0.0521276455	-0.283313
C	 1.5027070407	 0.0806048628	-0.0373455716	 0.093036
C	 1.5597312006	-0.6919657811	 1.3177079973	 0.00409
O	 0.7643818867	 0.0282502084	 2.2596608362	-0.219646
C	 0.0848459624	-0.8091015244	 1.3268015873	 0.01054
C	-0.0387448912	-0.0312009372	-0.0092158919	-0.130139
H	-0.3775397692	 1.9535982504	 1.0067528054	 0.118987
H	-0.3991626156	 2.0305322764	-0.7886123398	 0.101137
H	 2.1392949166	-0.3040340954	-0.8381749974	 0.083023
H	 2.3387100693	-1.3322657925	 1.7169468884	 0.106317
H	-0.5667403176	-1.5765948385	 1.7283806369	 0.10847
H	-0.6094069849	-0.5035590891	-0.8059370622	 0.089064
231.0537	302.0741	448.9915	625.1497	717.5376	762.1311	815.4488	834.1703	874.3812	881.2163	928.3848	957.5318	992.7871	998.6657	1028.1693	1051.9805	1071.1721	1158.6862	1166.0975	1202.4264	1227.0934	1254.0372	1282.8263	1295.8344	1352.9116	1377.596	1503.9637	3032.759	3081.6147	3096.6266	3140.3994	3173.596	3190.6996
C1OC2C3OC3C12	C1O[C@H]2[C@H]3O[C@H]3[C@@H]12	
InChI=1S/C5H6O2/c1-2-3(6-1)5-4(2)7-5/h2-5H,1H2	InChI=1S/C5H6O2/c1-2-3(6-1)5-4(2)7-5/h2-5H,1H2/t2-,3+,4-,5+/m0/s1
