18
gdb 4455	3.47785	1.6773	1.1523	1.4567	77.05	-0.1709	0.0581	0.229	1051.7221	0.153964	-344.029965	-344.020897	-344.019952	-344.063644	32.605	
C	 0.1900299159	 1.4941239489	 0.1168248349	-0.507635
C	 0.0591511389	 0.0148232277	-0.0368084304	 0.206923
C	-0.0640560669	-0.7903296003	-1.1492571219	 0.224201
C	-0.0955351128	-0.3590597166	-2.5850696462	-0.506218
C	-0.1345552612	-2.146069749	-0.6881948728	-0.301705
C	-0.0620288546	-2.1267583718	 0.6834251949	 0.280894
N	-0.1487141101	-3.133221467	 1.6696531878	-0.60983
N	 0.0588949074	-0.8160527913	 1.0713397612	-0.319084
H	 1.1471073044	 1.7831917467	 0.5712650228	 0.120945
H	 0.1320084111	 1.9849221233	-0.8570112974	 0.13382
H	-0.6060411446	 1.919478079	 0.742504556	 0.119164
H	-0.051336941	 0.7292101227	-2.6849969228	 0.113553
H	 0.7471544469	-0.7716731628	-3.1537413801	 0.118618
H	-1.0109741327	-0.6950729193	-3.0872368919	 0.119472
H	-0.2100407894	-3.0302407735	-1.3044366722	 0.072838
H	-0.5134523533	-3.9878762466	 1.2668841224	 0.244431
H	 0.7574141623	-3.3520999074	 2.0756489547	 0.239974
H	 0.0189264798	-0.513390723	 2.0293871511	 0.249639
64.588	109.0949	134.985	179.9465	215.3951	273.7836	279.3728	329.3607	440.1399	482.7439	593.7039	629.0158	648.9169	652.6221	762.5752	785.6704	837.733	985.4224	994.0734	1040.6842	1054.9009	1064.4675	1149.8156	1164.2009	1193.3331	1249.5635	1325.0188	1406.9456	1425.6464	1460.9642	1473.7823	1478.2614	1483.0248	1497.1522	1501.668	1575.4804	1643.4266	1663.8701	3005.711	3017.7323	3044.0911	3060.647	3101.2193	3122.4102	3232.3176	3481.4288	3592.3969	3673.14
CC1=C(C)C=C(N)N1	Cc1c(C)cc(N)[nH]1	
InChI=1S/C6H10N2/c1-4-3-6(7)8-5(4)2/h3,8H,7H2,1-2H3	InChI=1S/C6H10N2/c1-4-3-6(7)8-5(4)2/h3,8H,7H2,1-2H3
