13
gdb 846	7.04294	2.13598	1.6589	1.2965	56.39	-0.1971	0.0174	0.2145	724.1518	0.1028	-340.674744	-340.668051	-340.667106	-340.705321	24.134	
C	 0.0125421115	 1.4462868773	-0.025947539	-0.487309
C	-0.0573815287	-0.0375344425	 0.0235243735	 0.397518
N	-1.1040162565	-0.7930565805	-0.1255800095	-0.341379
C	-0.6283822783	-2.0902502368	 0.010212452	 0.258963
N	-1.5172425229	-3.1588484989	-0.0324343122	-0.597289
C	 0.7107218403	-2.0488318	 0.2370246997	-0.126692
O	 1.0834925206	-0.7176931762	 0.246558207	-0.175676
H	 0.6901414341	 1.7830839922	-0.817389618	 0.144016
H	-0.9846107995	 1.8428302639	-0.217688924	 0.154104
H	 0.3834695792	 1.8543970377	 0.9199959421	 0.145573
H	-2.3530396836	-2.9214444221	-0.5498125448	 0.253905
H	-1.1129568505	-4.020083621	-0.3722818712	 0.246533
H	 1.4876145242	-2.7722599732	 0.4043648544	 0.127733
82.0871	203.1432	241.0429	286.4741	349.3915	442.3825	622.6387	634.7581	652.6271	687.5002	743.2467	769.0027	951.0309	1012.9735	1049.2927	1064.8509	1109.3896	1127.1716	1245.7578	1344.5969	1399.2059	1415.3064	1476.066	1481.5616	1609.1753	1637.5209	1676.422	3043.9654	3097.5869	3157.526	3304.3418	3553.731	3652.0574
CC1=NC(N)=CO1	Cc1nc(N)co1	
InChI=1S/C4H6N2O/c1-3-6-4(5)2-7-3/h2H,5H2,1H3	InChI=1S/C4H6N2O/c1-3-6-4(5)2-7-3/h2H,5H2,1H3
