13
gdb 370	6.78215	2.26625	1.80707	3.7371	50.15	-0.2896	0.035	0.3246	658.6943	0.107232	-286.504534	-286.497432	-286.496488	-286.535239	24.138	
C	-0.0341685128	 1.5712135071	 0.0074616007	-0.388983
C	 0.0531334056	 0.0339329933	-0.0167645446	-0.122504
C	 0.745598197	-0.4919500715	-1.287120481	-0.071642
O	-0.0523903707	-0.0867134489	-2.3831023966	-0.418353
C	 0.7451762972	-0.4793536164	 1.1679693763	 0.254545
N	 1.3047222573	-0.8807079445	 2.0961744754	-0.320019
H	 0.9657181316	 2.0140276609	 0.0377395095	 0.132217
H	-0.5420116608	 1.9124995571	-0.8958161989	 0.147355
H	-0.5881494193	 1.9168314854	 0.8831818681	 0.134632
H	-0.9629656412	-0.380137165	-0.0116849501	 0.138154
H	 1.762706366	-0.0755433713	-1.3437915237	 0.107272
H	 0.8323473104	-1.5864412424	-1.2292022806	 0.110889
H	 0.3872303296	-0.3539519239	-3.1953101944	 0.296437
114.6674	166.0782	209.1345	225.7118	242.7344	327.871	435.2345	539.2266	564.9532	818.2706	926.5956	936.3237	1053.3089	1089.5603	1118.1303	1166.6488	1240.6024	1265.3866	1323.186	1344.6584	1403.8642	1457.6559	1493.3581	1501.3229	1523.8411	2358.9198	2986.084	3020.9282	3044.3222	3054.6688	3126.7679	3150.6087	3838.7373
CC(CO)C#N	C[C@@H](CO)C#N	
InChI=1S/C4H7NO/c1-4(2-5)3-6/h4,6H,3H2,1H3	InChI=1S/C4H7NO/c1-4(2-5)3-6/h4,6H,3H2,1H3/t4-/m1/s1
