14
gdb 2524	3.87494	2.0736	1.49754	5.7673	56.17	-0.2521	-0.0367	0.2154	813.7678	0.111745	-361.753989	-361.746208	-361.745263	-361.786586	25.989	
C	-0.0214016266	 1.546944807	 0.0106096644	-0.370769
C	-0.0464383231	 0.0180512178	 0.002616699	-0.187346
N	-1.4061067401	-0.5369720472	 0.0125989079	-0.085301
C	-2.0379288405	-0.7656230227	-1.2173547543	 0.16724
O	-3.1547030265	-1.1664844032	-1.3862669467	-0.260455
C	-2.014388203	-0.7788731749	 1.2518492642	 0.167242
O	-3.1277324073	-1.1817726734	 1.4377075746	-0.260457
H	 1.0105713811	 1.9106129716	 0.0027229988	 0.129587
H	-0.5344423808	 1.950894575	-0.8673754149	 0.134853
H	-0.5175578493	 1.9413660804	 0.902520535	 0.134853
H	 0.4697804323	-0.3696233928	-0.8805415346	 0.131196
H	 0.4864961765	-0.3790577569	 0.8715397715	 0.131195
H	-1.3473490125	-0.5280558669	-2.0522823875	 0.08408
H	-1.3079324802	-0.5503765938	 2.0759563325	 0.08408
49.6136	134.8232	145.5476	227.6985	233.1495	263.4679	402.4858	425.4099	529.2934	650.6707	783.0753	961.5956	964.6697	1018.0031	1039.9588	1099.0747	1103.093	1202.1313	1271.9344	1382.9962	1392.5345	1415.2187	1447.9571	1461.176	1491.1624	1494.6647	1510.0143	1798.278	1878.2263	2914.2217	2925.3041	3041.0643	3058.8117	3092.5266	3118.6711	3121.9817
CCN(C=O)C=O	CCN(C=O)C=O	
InChI=1S/C4H7NO2/c1-2-5(3-6)4-7/h3-4H,2H2,1H3	InChI=1S/C4H7NO2/c1-2-5(3-6)4-7/h3-4H,2H2,1H3
