17
gdb 3245	8.23466	1.42416	1.3991	1.0107	65.17	-0.24	0.096	0.336	923.0521	0.147725	-309.674575	-309.667457	-309.666512	-309.70608	26.543	
C	-0.1706875944	 0.9488212111	-0.5083216152	-0.287776
C	 1.1344755451	 1.0437667824	 0.2605203848	-0.287672
C	 0.3634472821	-0.2339567757	 0.2592907685	 0.147617
O	-0.2429282516	-0.5866812344	 1.4680523405	-0.254046
C	-1.3463425098	-1.4279616601	 1.300913958	 0.147617
C	-1.1230247481	-2.9162530375	 1.2081230122	-0.287776
C	-1.695657808	-2.2911682622	 2.4670686231	-0.287672
H	-1.0264058012	 1.4622595968	-0.0842987261	 0.119367
H	-0.1413023733	 0.9261873304	-1.5921664576	 0.111489
H	 2.0673227177	 1.0871879296	-0.2899272143	 0.112934
H	 1.1216491654	 1.6116792373	 1.1836737173	 0.125756
H	 0.7505114976	-1.0791782922	-0.308975941	 0.085308
H	-2.1523060382	-0.9944910845	 0.7095839816	 0.085308
H	-1.7741018216	-3.5047024869	 0.5710034144	 0.111489
H	-0.0964203621	-3.2617210994	 1.2571462545	 0.119367
H	-1.0387687704	-2.2260076034	 3.3268081024	 0.125756
H	-2.7423725191	-2.4465142613	 2.7023081867	 0.112934
76.541	90.4416	177.6903	302.5106	383.6118	467.8081	482.3246	742.8614	763.3715	803.8573	810.1941	829.0932	856.2183	952.3693	953.9414	1005.3375	1024.8309	1049.128	1056.0003	1071.7177	1071.936	1126.4676	1127.6854	1190.0038	1193.0452	1195.4481	1196.4485	1230.9901	1249.7601	1368.4964	1415.1416	1453.6049	1453.6672	1491.5576	1503.4143	3103.8063	3109.181	3134.7121	3135.0544	3142.2188	3142.3901	3219.6074	3219.7077	3234.7404	3234.7994
C1CC1OC1CC1	C1CC1OC1CC1	
InChI=1S/C6H10O/c1-2-5(1)7-6-3-4-6/h5-6H,1-4H2	InChI=1S/C6H10O/c1-2-5(1)7-6-3-4-6/h5-6H,1-4H2
