19
gdb 2091	4.48514	2.29756	1.63235	0.2145	72.41	-0.2345	0.0336	0.268	810.484	0.173584	-273.811544	-273.804595	-273.80365	-273.842014	27.209	
C	-0.0085049118	 1.5658394857	 0.0167031209	-0.403501
C	 0.0251126978	 0.035725264	 3.863*^-6	 0.045771
C	 0.6992716725	-0.5149183128	-1.2661590515	-0.187391
C	 0.6186113823	-2.047273889	-1.3292586441	-0.259392
C	 0.9495854583	-2.684509485	-0.0048415899	-0.038161
C	 1.0093670882	-2.0057630461	 1.1400815347	-0.06062
C	 0.7234364101	-0.5300491598	 1.2491732379	-0.235008
H	 1.006001484	 1.9804422122	-0.0226544426	 0.110868
H	-0.5624669581	 1.9613635228	-0.8413966105	 0.108335
H	-0.4858593289	 1.9451043974	 0.927011711	 0.108318
H	-1.0118836834	-0.3311189063	 0.0083252657	 0.07125
H	 0.2441775097	-0.0749240901	-2.1611731248	 0.086408
H	 1.7539335278	-0.206416147	-1.267098616	 0.093724
H	-0.3885690534	-2.3596319594	-1.6447560868	 0.104336
H	 1.2950265595	-2.4295070909	-2.1046361498	 0.098747
H	 1.1476371459	-3.7541092167	-0.0080589376	 0.079256
H	 1.274245884	-2.5232678547	 2.0595909446	 0.079163
H	 1.6645262661	 0.0153150043	 1.425380549	 0.100402
H	 0.1089883494	-0.3360910585	 2.1385493269	 0.097492
139.2815	196.7334	237.1125	305.2068	391.2609	414.265	445.3943	509.4997	671.4498	736.4748	795.6215	877.0871	896.4095	909.8291	958.2673	970.2558	1002.9171	1007.4025	1053.3	1098.6447	1114.8525	1138.8682	1162.2332	1224.857	1251.8592	1281.7527	1325.2172	1331.7794	1367.4983	1376.9271	1397.6624	1409.0591	1418.8368	1472.1299	1477.7081	1493.7693	1497.8497	1499.911	1726.7185	2980.3361	2992.8228	2994.7269	3012.3313	3022.5131	3029.7554	3036.5277	3059.6083	3087.9912	3094.2036	3136.8373	3161.1695
CC1CCC=CC1	C[C@H]1CCC=CC1	
InChI=1S/C7H12/c1-7-5-3-2-4-6-7/h2-3,7H,4-6H2,1H3	InChI=1S/C7H12/c1-7-5-3-2-4-6-7/h2-3,7H,4-6H2,1H3/t7-/m1/s1
