17
gdb 2319	6.57686	1.30051	1.18578	2.9462	65.59	-0.2438	-0.0181	0.2258	1008.4053	0.146821	-309.71775	-309.709804	-309.70886	-309.750545	27.944	
C	 0.0812425328	 1.5710665983	-0.1818614624	-0.404244
C	-0.0449071618	 0.0826366535	 0.0586479223	-0.001706
C	 1.1404191929	-0.8382774793	-0.0914052299	-0.291901
C	 0.531476702	-0.6090921054	 1.2762871079	-0.005299
C	 1.2906654353	 0.1291165124	 2.3645874333	-0.29881
C	 2.2574440869	-0.7900164092	 3.0828947819	 0.166216
O	 2.3090734865	-0.94109975	 4.2762225307	-0.240093
H	 1.0636279458	 1.9539388872	 0.1095333122	 0.115409
H	-0.0517436312	 1.8008761241	-1.2445965586	 0.121324
H	-0.6750951155	 2.1331581601	 0.3771641901	 0.120826
H	-0.9948961044	-0.3295863133	-0.2720178205	 0.088842
H	 1.0085338274	-1.8029308203	-0.5687171942	 0.114743
H	 2.1020033966	-0.3748530638	-0.2934657879	 0.109615
H	-0.0705077889	-1.4290864263	 1.6600161119	 0.094441
H	 1.8860281034	 0.9399802312	 1.9240953114	 0.115844
H	 0.6193675495	 0.5717680954	 3.1072805651	 0.120697
H	 2.9433476828	-1.3470797647	 2.4031096366	 0.074097
65.5984	71.2446	151.8284	203.4146	240.0693	341.8151	400.4309	480.7691	517.9752	762.4036	781.8487	833.0837	864.2245	910.768	937.3837	1006.5691	1039.1242	1074.2149	1092.4647	1111.0404	1151.768	1162.7681	1199.8928	1239.8997	1252.0546	1293.5637	1389.0279	1416.8366	1425.8666	1428.6483	1457.4273	1493.3458	1494.1893	1506.2753	1834.6482	2864.1664	3025.0567	3033.0415	3088.3825	3091.0612	3104.3103	3124.3409	3131.6606	3143.0447	3209.5268
CC1CC1CC=O	C[C@H]1C[C@H]1CC=O	
InChI=1S/C6H10O/c1-5-4-6(5)2-3-7/h3,5-6H,2,4H2,1H3	InChI=1S/C6H10O/c1-5-4-6(5)2-3-7/h3,5-6H,2,4H2,1H3/t5-,6+/m0/s1
