16
gdb 3159	4.08621	2.57898	1.90049	1.9755	60.61	-0.2437	0.0663	0.31	714.064	0.136777	-325.728271	-325.721387	-325.720442	-325.759062	25.499	
C	-0.2798201735	 1.4873863126	 0.0468241278	-0.401464
C	 0.1238850134	 0.0271411728	 0.0012881855	 0.087316
O	 1.3388314466	-0.1924565879	-0.7594633892	-0.298655
C	 1.9771077232	-0.8971749737	 0.3307730166	-0.126904
C	 0.7821314261	-0.6114270115	 1.2294462854	 0.274321
C	 0.6989864574	-0.2133140375	 2.6477112109	-0.302241
N	 0.2160051712	-1.5372260927	 2.1946242789	-0.357873
H	 0.5194442395	 2.0986144319	 0.475172069	 0.123328
H	-0.4909850863	 1.8506826816	-0.9637971201	 0.130892
H	-1.1864111009	 1.6198852883	 0.648225252	 0.112134
H	-0.697836783	-0.5845251656	-0.4041446696	 0.074479
H	 2.1316611041	-1.9604952703	 0.1084099409	 0.109426
H	 2.932631319	-0.4388985558	 0.6127000223	 0.105296
H	 1.5843773946	-0.2433239998	 3.2775724142	 0.122808
H	-0.0289244496	 0.5449351787	 2.9264790709	 0.115489
H	-0.8001070017	-1.540928411	 2.1318158545	 0.231647
87.3449	202.0094	217.4537	281.9905	329.2927	399.9364	506.7851	558.6444	776.1185	833.5532	880.1568	889.874	933.4076	963.9318	1010.3702	1026.4481	1052.0655	1089.6958	1091.0914	1125.3439	1146.2004	1157.2762	1259.6808	1274.5877	1293.7802	1331.1551	1378.9206	1403.4905	1439.6179	1483.8921	1490.9456	1519.1828	1521.3045	2973.675	3015.7746	3033.3514	3061.7908	3102.2806	3103.461	3119.4716	3187.1711	3485.8021
CC1OCC11CN1	C[C@H]1OC[C@]21CN2	
InChI=1S/C5H9NO/c1-4-5(2-6-5)3-7-4/h4,6H,2-3H2,1H3	InChI=1S/C5H9NO/c1-4-5(2-6-5)3-7-4/h4,6H,2-3H2,1H3/t4-,5+/m1/s1
