15
gdb 1233	7.7386	1.09758	0.99907	1.2253	78.98	-0.24	-0.0083	0.2318	1154.0398	0.122618	-271.339821	-271.331571	-271.330626	-271.37208	29.594	
C	-0.0363456437	 1.5531323303	 0.0074470504	-0.376075
C	 0.0418067821	 0.0121559843	-0.000870747	-0.166141
C	 0.7158101825	-0.512074033	-1.2860485751	-0.376076
C	 0.7252814439	-0.4843267466	 1.1892609942	 0.499888
C	 1.2981083291	-0.8929073174	 2.1747665215	-0.370088
C	 1.9463682277	-1.3495562588	 3.2808427538	 0.304184
C	 2.5207057743	-1.7553670787	 4.2627604431	-0.566503
H	 0.9664221139	 1.9894828603	-0.0241992772	 0.128757
H	-0.5928427225	 1.9041813783	-0.8671327793	 0.116428
H	-0.5378724268	 1.9177219218	 0.9073683696	 0.128907
H	-0.9862978377	-0.3766883981	 0.0221281313	 0.114021
H	 1.7430917238	-0.1430319607	-1.35985152	 0.128757
H	 0.7449145645	-1.6044597191	-1.2986753594	 0.128907
H	 0.1621559359	-0.1688291105	-2.1655167272	 0.116427
H	 3.0270154329	-2.1111798321	 5.1251700413	 0.188607
89.9828	107.5674	228.5392	234.4088	240.4128	281.8506	342.4478	482.6903	490.494	534.7242	546.0628	592.074	602.9175	661.5609	873.1813	932.2641	964.8773	1066.3594	1116.4529	1151.1933	1213.7503	1317.3137	1347.8639	1395.6112	1417.5639	1485.8139	1488.645	1498.5726	1510.0108	2180.0235	2360.5307	3003.5062	3038.96	3042.3751	3111.4727	3116.6537	3122.9714	3124.7381	3506.5316
CC(C)C#CC#C	CC(C)C#CC#C	
InChI=1S/C7H8/c1-4-5-6-7(2)3/h1,7H,2-3H3	InChI=1S/C7H8/c1-4-5-6-7(2)3/h1,7H,2-3H3
