15
gdb 2665	6.61268	1.25117	1.06593	1.8765	64.35	-0.2511	-0.0171	0.234	1063.4638	0.124772	-341.867138	-341.859401	-341.858457	-341.899404	26.751	
C	 0.0097201063	 1.3732081412	-0.0491379149	-0.397204
C	 0.389587848	-0.0663819516	-0.4042250075	-0.110721
N	-0.6616650136	-1.0707075224	-0.4692876402	-0.251634
C	-1.8623364525	-0.7523299112	-0.2357935596	 0.117595
N	-2.8598599902	-1.7233292609	-0.301334442	-0.304067
C	-4.1904642425	-1.4791786799	-0.0654196039	 0.158149
O	-4.6560523517	-0.4020737372	 0.2254203913	-0.30056
H	 0.9081986509	 1.9973163184	-0.0427331092	 0.116962
H	-0.6874665085	 1.8027227807	-0.7762587985	 0.125964
H	-0.4488884975	 1.4416173471	 0.9429583971	 0.125964
H	 0.9000807064	-0.0812315228	-1.3766429335	 0.115445
H	 1.1345810193	-0.4361620362	 0.3131785255	 0.115444
H	-2.2544999231	 0.2307847575	 0.025117747	 0.137408
H	-2.5577096795	-2.6576555974	-0.5395171098	 0.26228
H	-4.7979909117	-2.3976228753	-0.1740458919	 0.088974
79.6742	122.0947	167.5129	211.4068	288.0375	291.5509	386.9965	397.1723	565.0634	657.5302	778.787	781.0948	901.4727	1006.8099	1031.2481	1060.3226	1086.4253	1113.9211	1148.7278	1245.2744	1310.5925	1348.211	1381.4458	1407.9805	1438.0149	1477.0682	1495.0693	1502.4211	1509.6558	1756.7364	1816.56	2956.7168	3015.6148	3034.8803	3035.0243	3103.9563	3109.8609	3137.8089	3609.8511
CCN=CNC=O	CCN=CNC=O	
InChI=1S/C4H8N2O/c1-2-5-3-6-4-7/h3-4H,2H2,1H3,(H,5,6,7)	InChI=1S/C4H8N2O/c1-2-5-3-6-4-7/h3-4H,2H2,1H3,(H,5,6,7)
