13
gdb 3998	3.70487	1.35123	0.9961	0.6382	70.97	-0.2459	-0.0376	0.2084	1091.3741	0.091451	-361.34644	-361.337818	-361.336874	-361.379798	30.819	
O	-0.1016815796	 1.4630887614	 0.0108648156	-0.380569
N	 0.0710990464	 0.0890397968	 0.0018180669	-0.146638
C	-1.0431490544	-0.547986383	 0.0090499734	 0.184895
C	-1.0108560224	-2.0686754491	 0.0005519583	-0.441537
C	 0.3155713939	-2.6680584268	-0.0152661878	 0.336855
C	 1.3879460727	-3.207537492	-0.0283564654	-0.461955
C	-2.3298217879	 0.0622639403	 0.0246471778	 0.32331
C	-3.4450837986	 0.5152364284	 0.037758884	-0.44572
H	 0.8072118469	 1.7844705846	 0.0039066027	 0.313573
H	-1.5709364117	-2.4232947251	 0.8765099905	 0.156114
H	-1.5874949299	-2.4138936514	-0.8683908829	 0.156116
H	 2.3431638734	-3.6707787375	-0.039949402	 0.197353
H	-4.4192357288	 0.9389063835	 0.049361789	 0.208203
51.8852	117.9376	151.5103	249.156	279.053	280.8455	333.4862	416.0804	451.1743	491.9165	612.9111	622.4958	645.3842	650.4825	655.3632	680.6028	821.8333	945.2822	975.5474	1045.5491	1192.6448	1228.8842	1348.5444	1404.834	1458.8549	1689.3043	2220.8248	2249.7241	3016.1561	3039.5232	3499.7709	3507.9028	3806.9418
ON=C(CC#C)C#C	ON=C(CC#C)C#C	
InChI=1S/C6H5NO/c1-3-5-6(4-2)7-8/h1-2,8H,5H2	InChI=1S/C6H5NO/c1-3-5-6(4-2)7-8/h1-2,8H,5H2
