15
gdb 1699	4.49069	2.17369	1.909	4.7968	61.06	-0.2479	0.0224	0.2702	724.2185	0.125766	-304.691568	-304.684578	-304.683634	-304.722247	25.754	
C	-0.1242966709	 1.5726754397	 0.0009917009	-0.446617
C	-0.0152893124	 0.0428690444	-0.0174004584	 0.172297
C	 0.7842437153	-0.5217644025	-1.2374818401	-0.265284
C	 1.9692270391	-0.6876016973	-0.256019658	-0.159663
N	 1.0244817118	-0.5295196067	 0.8751898346	-0.322548
C	-1.3435206934	-0.5532168003	 0.1969206201	 0.26875
N	-2.3939160174	-1.0115540592	 0.3468796907	-0.342167
H	 0.8543546707	 2.0187654986	-0.200611898	 0.123593
H	-0.8296558921	 1.9250915388	-0.7575861705	 0.141218
H	-0.4751368605	 1.9221172448	 0.9770349366	 0.137403
H	 0.3871537398	-1.4695803423	-1.6000746112	 0.136205
H	 0.9117781871	 0.1673958855	-2.0726153211	 0.117442
H	 2.4883504839	-1.6501566421	-0.2659088151	 0.116746
H	 2.7148398616	 0.112533761	-0.3479835321	 0.100441
H	 1.3182116174	 0.0817851475	 1.6298725916	 0.222183
130.856	181.8856	202.5627	260.3977	328.2104	379.2607	537.8664	569.2112	594.3914	707.8685	775.2437	894.2872	929.3319	935.0021	958.8392	993.5835	1033.1479	1125.0669	1165.5052	1183.2637	1211.6162	1233.7945	1273.5442	1328.4804	1387.8492	1406.7858	1481.0409	1487.3793	1493.3187	1527.773	2353.3293	3016.8987	3036.6022	3078.5404	3094.014	3113.3734	3115.5977	3154.7534	3524.5992
CC1(CCN1)C#N	C[C@]1(CCN1)C#N	
InChI=1S/C5H8N2/c1-5(4-6)2-3-7-5/h7H,2-3H2,1H3	InChI=1S/C5H8N2/c1-5(4-6)2-3-7-5/h7H,2-3H2,1H3/t5-/m0/s1
