19
gdb 3104	3.53355	2.13528	1.73371	0.9979	67.93	-0.2335	0.0804	0.3139	840.2918	0.16992	-310.897519	-310.888879	-310.887935	-310.930154	30.7	
C	 0.0046476117	 1.1971157599	-0.3693231944	-0.232115
O	-0.1158045546	 0.046027729	 0.4417940829	-0.233826
C	-1.3263707099	-0.6208873749	 0.2588219879	 0.104729
C	-1.4266187725	-1.7219838956	-0.7815049793	-0.053953
C	-0.2688753192	-2.0400266246	-1.7038651811	-0.407397
C	-1.3818516179	-2.0534392762	 0.7061687477	-0.065834
C	-0.1863636191	-2.7182287351	 1.3561369862	-0.400514
H	 0.9714750333	 1.6527726005	-0.1419042151	 0.124796
H	-0.0355105677	 0.95127467	-1.4396232517	 0.110224
H	-0.7911968255	 1.9260784548	-0.1521510585	 0.105495
H	-2.200479401	 0.0120710762	 0.4248904113	 0.075134
H	-2.4044692066	-1.8318206663	-1.2447405754	 0.076933
H	 0.6851183619	-1.7277329652	-1.2735650806	 0.130077
H	-0.2090573881	-3.1138684868	-1.9133617472	 0.114213
H	-0.3836935819	-1.524826741	-2.6639525162	 0.111329
H	-2.3347423432	-2.3578541926	 1.1322990179	 0.080914
H	 0.7544813575	-2.2834680549	 1.0158059521	 0.132686
H	-0.225952289	-2.5958752927	 2.4438019526	 0.11612
H	-0.1685184882	-3.7926227145	 1.1428733512	 0.11099
109.8188	148.7285	151.0724	170.2536	179.5426	218.4718	277.56	324.7456	469.6573	554.6374	604.3725	749.9629	776.3071	861.9818	955.4935	966.3832	1001.6612	1049.2551	1096.7361	1114.4047	1139.7379	1159.577	1168.8965	1181.5067	1185.2306	1234.6161	1267.8378	1367.8982	1370.1846	1412.0561	1419.9002	1444.1425	1485.2384	1486.9046	1488.675	1493.8903	1504.0384	1509.4978	1513.2086	2982.8239	3031.1502	3036.252	3037.1929	3073.244	3084.1705	3090.0991	3115.2534	3115.5665	3126.9849	3133.1427	3146.0951
COC1C(C)C1C	CO[C@H]1[C@@H](C)[C@H]1C	
InChI=1S/C6H12O/c1-4-5(2)6(4)7-3/h4-6H,1-3H3	InChI=1S/C6H12O/c1-4-5(2)6(4)7-3/h4-6H,1-3H3/t4-,5+,6-
