14
gdb 2627	12.94693	0.88307	0.85533	2.7686	59.33	-0.2655	-0.0377	0.2278	1232.5847	0.111941	-324.603913	-324.596044	-324.595099	-324.637147	25.84	
O	-0.066587869	-0.1249369449	-0.1291768255	-0.227549
C	 0.0070529448	 1.075113943	-0.115396273	 0.158729
C	 1.3014556643	 1.8615543578	-0.1342430892	-0.28059
C	 1.3299170143	 2.8847550491	-1.2798809072	-0.192936
C	 2.5997737985	 3.7574208625	-1.2335300575	-0.336868
C	 2.6405772104	 4.739440967	-2.3149458677	 0.258376
N	 2.653876598	 5.5099713441	-3.1757778889	-0.29683
H	-0.9114969385	 1.7074076443	-0.0870476473	 0.078332
H	 1.3759054661	 2.392101296	 0.8268015667	 0.125076
H	 2.1355496975	 1.1564711914	-0.1975687163	 0.129916
H	 1.2839242693	 2.3681646956	-2.2441217265	 0.13953
H	 0.4479004046	 3.5327880007	-1.2278901989	 0.130437
H	 2.659435835	 4.2898125175	-0.2769555387	 0.155197
H	 3.4951035447	 3.1285806459	-1.2992064001	 0.159179
52.7572	88.7726	100.3609	134.9948	263.6807	339.2789	398.2253	496.4834	561.8483	742.0075	802.163	905.5363	936.4267	992.7766	1040.3331	1092.2365	1118.1607	1187.0256	1253.6015	1287.6943	1328.321	1336.0055	1388.8139	1429.8156	1463.6257	1469.4303	1500.9127	1840.8451	2364.8805	2857.8036	3008.627	3038.1634	3049.5461	3071.7994	3088.8366	3104.8471
O=CCCCC#N	O=CCCCC#N	
InChI=1S/C5H7NO/c6-4-2-1-3-5-7/h5H,1-3H2	InChI=1S/C5H7NO/c6-4-2-1-3-5-7/h5H,1-3H2
