18
gdb 1786	4.95259	1.72555	1.54319	1.7477	64.29	-0.2418	0.0631	0.305	867.5917	0.158678	-326.952797	-326.944295	-326.943351	-326.985399	30.662	
C	-0.0268426286	 1.4434443613	-0.2068912177	-0.400965
C	 0.020157751	-0.0336753192	 0.1044340918	-0.035056
N	 1.3245879413	-0.7103321062	 0.0006832327	-0.366015
C	 0.6580453574	-0.6359190721	 1.313567598	 0.320986
C	 1.3676727978	 0.2009102514	 2.3590287889	-0.462393
C	 0.0293814653	-1.9132900755	 1.8457587654	-0.141307
O	 0.9832968253	-2.8973724235	 2.2239755338	-0.416864
H	 0.868798915	 1.9576181673	 0.1468862886	 0.126489
H	-0.0909418268	 1.5999584167	-1.289129524	 0.122096
H	-0.9037447875	 1.9129836241	 0.2524294461	 0.114113
H	-0.8433074254	-0.5829172978	-0.2730765592	 0.075298
H	 1.2280669105	-1.6452181589	-0.3890654688	 0.230705
H	 1.8542967144	 1.0688127151	 1.9128553221	 0.13404
H	 0.6692833649	 0.5480808357	 3.1292039564	 0.113426
H	 2.154028914	-0.3831571714	 2.8525801899	 0.108865
H	-0.648139498	-1.6761161759	 2.682077289	 0.088841
H	-0.572969669	-2.3833620324	 1.0607309043	 0.101497
H	 1.4688289383	-2.5675783187	 2.9861376729	 0.286245
59.648	162.3598	174.2737	184.2371	248.3608	292.3581	318.1701	369.3652	394.0586	473.5335	564.4333	717.3202	790.0539	868.3478	938.6257	957.452	975.6358	1029.5194	1062.1096	1079.9232	1094.3851	1111.0182	1153.3056	1202.2818	1240.1943	1290.1861	1359.3101	1382.9954	1410.3457	1417.4065	1428.5812	1460.637	1479.9119	1489.6912	1493.043	1501.8287	1512.6357	2973.6272	3026.3174	3036.277	3066.566	3081.5498	3092.6653	3094.5949	3130.898	3142.6146	3492.0432	3826.7447
CC1NC1(C)CO	C[C@H]1N[C@]1(C)CO	
InChI=1S/C5H11NO/c1-4-5(2,3-7)6-4/h4,6-7H,3H2,1-2H3	InChI=1S/C5H11NO/c1-4-5(2,3-7)6-4/h4,6-7H,3H2,1-2H3/t4-,5-/m1/s1
