14
gdb 661	4.99775	4.8056	2.7505	1.8428	49.04	-0.2601	0.0912	0.3513	497.6429	0.122388	-307.568767	-307.563615	-307.562671	-307.597128	19.492	
C	-0.0138534734	 1.5251782421	 0.016864206	-0.20495
C	 1.428452406	 2.0368258158	-0.0368820015	-0.075397
O	 2.1143983771	 1.4694614672	-1.1461252301	-0.233777
C	 2.0803273051	 0.0680124939	-1.0965824326	 0.022204
O	 0.7785141134	-0.4523163851	-1.1436512427	-0.233777
C	 0.0090312513	-0.0051099161	-0.0342625475	-0.075396
H	-0.5140590867	 1.8740519474	 0.9273158577	 0.097528
H	-0.5664496246	 1.9082008664	-0.8472843891	 0.116177
H	 1.4745495421	 3.1215353088	-0.1627049308	 0.112317
H	 1.954762633	 1.7784821531	 0.8987258235	 0.087212
H	 2.6043511815	-0.2973916536	-1.9818948355	 0.117521
H	 2.5891183961	-0.2844787387	-0.1768338856	 0.07081
H	 0.4356803426	-0.4068069749	 0.9015344138	 0.087212
H	-0.9917971435	-0.4264689163	-0.1581607554	 0.112317
259.5992	260.9429	427.4686	464.5149	492.6833	649.7896	846.8117	893.201	913.5647	920.3697	1009.0395	1027.6476	1066.0937	1114.6669	1181.3188	1212.814	1229.1326	1253.3238	1319.3616	1333.3854	1370.2589	1386.128	1414.4463	1447.2586	1468.767	1495.7758	1496.1685	1510.935	2902.7891	2953.9351	2961.8292	3042.8371	3089.5571	3093.0343	3098.8478	3113.759
C1COCOC1	C1COCOC1	
InChI=1S/C4H8O2/c1-2-5-4-6-3-1/h1-4H2	InChI=1S/C4H8O2/c1-2-5-4-6-3-1/h1-4H2
