13
gdb 868	7.08496	2.09405	1.63277	2.3274	55.95	-0.1961	0.0513	0.2474	726.3185	0.103349	-340.685408	-340.678933	-340.677989	-340.715468	23.91	
C	-0.0602029351	 1.5047047536	 0.0505186829	-0.505568
C	-0.0058135287	 0.0193560755	-0.0340999421	 0.296656
C	-0.0271547212	-0.8539963174	-1.0831085601	-0.16764
N	 0.0485999332	-2.1724816092	-0.6510017222	-0.362254
C	 0.1143576079	-2.0801796136	 0.6466597796	 0.439994
O	 0.2018773343	-3.0917142682	 1.5287160252	-0.426606
N	 0.0871694665	-0.7985475713	 1.0947350376	-0.352897
H	 0.835192723	 1.9298091313	 0.5219697507	 0.126708
H	-0.1333176391	 1.9254081587	-0.9552167509	 0.141606
H	-0.9283511025	 1.8594618025	 0.6207384173	 0.126641
H	-0.0929349295	-0.6164797523	-2.1341313852	 0.103248
H	 0.2062042932	-3.9031008039	 1.0056084272	 0.313167
H	 0.127155818	-0.5078807357	 2.0568135301	 0.266945
146.9028	194.4531	275.7576	334.2052	410.4102	456.2218	466.7844	622.161	640.8856	725.2913	746.3973	824.1334	989.2119	1007.5477	1056.4598	1066.037	1151.2204	1202.2761	1242.3942	1295.5032	1384.4776	1420.9526	1477.6937	1495.9146	1559.9886	1609.5662	1646.9725	3013.2316	3055.5432	3120.4435	3248.9504	3670.4702	3806.4602
CC1=CN=C(O)N1	Cc1cnc(O)[nH]1	
InChI=1S/C4H6N2O/c1-3-2-5-4(7)6-3/h2H,1H3,(H2,5,6,7)	InChI=1S/C4H6N2O/c1-3-2-5-4(7)6-3/h2H,1H3,(H2,5,6,7)
