12
gdb 613	7.11842	2.52096	2.1016	4.3878	47.84	-0.2437	-0.0148	0.2289	586.8932	0.095101	-306.355655	-306.349478	-306.348534	-306.385395	21.753	
O	 0.0562274754	 1.4085276768	-0.0262051974	-0.413327
C	 0.0438231298	 0.0131803814	 0.0189387251	 0.106935
C	-0.4956740831	-0.6857565094	 1.2206857395	-0.331371
C	-1.3115516184	-0.6548316378	-0.0773927725	-0.116471
C	-2.543556151	 0.1724035799	-0.1004842188	 0.174508
O	-3.5462969367	-0.1342828585	-0.697575121	-0.271567
H	 0.7585236709	 1.7193825469	 0.5548308526	 0.294367
H	 0.8458092747	-0.473084693	-0.5359248008	 0.103295
H	-0.0755789697	-1.6365326957	 1.5275363183	 0.130513
H	-0.8620105274	-0.0587092663	 2.0275697912	 0.129191
H	-1.3795500743	-1.5670439374	-0.6589404777	 0.111821
H	-2.4836801502	 1.1101028831	 0.4910427914	 0.082106
105.7577	217.2193	269.829	289.7143	424.9993	470.5806	544.9979	776.9687	846.8629	861.5171	962.4868	1000.8485	1042.7727	1061.8283	1132.9715	1162.1239	1183.0071	1229.9364	1294.7729	1339.7394	1415.6551	1439.8249	1479.2594	1817.5631	2912.4041	3105.518	3133.9802	3185.8074	3227.6115	3807.9938
OC1CC1C=O	O[C@H]1C[C@H]1C=O	
InChI=1S/C4H6O2/c5-2-3-1-4(3)6/h2-4,6H,1H2	InChI=1S/C4H6O2/c5-2-3-1-4(3)6/h2-4,6H,1H2/t3-,4-/m0/s1
