8
gdb 108	20.01906	2.89728	2.57099	3.5925	40.56	-0.2911	0.0111	0.3022	448.7393	0.05503	-208.842347	-208.837159	-208.836215	-208.87023	17.258	
C	-0.0216734843	-1.2162165665	-0.0042495857	-0.416692
C	 0.0011665515	-0.0171727911	 0.0019724095	 0.307891
C	 0.0116892046	 1.4432912445	 0.0097170647	-0.463071
C	 1.3663498295	 2.0105403747	-0.0001746028	 0.279392
N	 2.4241827434	 2.4724764488	-0.0078102424	-0.295728
H	-0.0371822836	-2.2784177441	-0.0098075609	 0.215187
H	-0.530803025	 1.8330288315	-0.8610174999	 0.18651
H	-0.5140236862	 1.8235933722	 0.8947942775	 0.18651
140.6213	313.1061	357.9203	375.2889	576.4704	642.2256	672.2897	900.5504	939.1496	993.8167	1235.4962	1335.4453	1447.267	2256.4627	2373.8205	3030.096	3061.3981	3504.0677
C#CCC#N	C#CCC#N	
InChI=1S/C4H3N/c1-2-3-4-5/h1H,3H2	InChI=1S/C4H3N/c1-2-3-4-5/h1H,3H2
