17
gdb 3347	5.32607	2.62655	1.94183	0.3901	70.63	-0.2207	0.0257	0.2464	697.5146	0.150774	-272.569586	-272.563644	-272.5627	-272.599063	23.76	
C	 0.0268787033	 1.5805937076	-0.0530773314	-0.239382
C	 1.5894520479	 1.4024235574	 0.0517613185	-0.319979
C	 1.277166541	 0.0169220573	 0.5693918212	 0.318237
C	 1.4444297765	-0.8329857571	 1.5762107589	-0.233934
C	 0.1738572301	-1.6662713473	 1.7425520536	-0.234476
C	-0.9225571681	-0.7974264971	 1.0386182381	-0.240056
C	-0.1186312871	 0.0163381843	 0.0058770178	-0.018951
H	-0.3796317414	 2.0582263913	 0.8422575164	 0.105884
H	-0.3529309269	 2.0892168712	-0.9425899917	 0.096761
H	 2.0535818705	 1.4026470637	-0.9405720744	 0.109929
H	 2.149657751	 2.0791469419	 0.7014753519	 0.108256
H	 2.2921034972	-0.9044242911	 2.2481077546	 0.087131
H	 0.2638057499	-2.6557311156	 1.2712976183	 0.101774
H	-0.0614573587	-1.8503989161	 2.7966933537	 0.098524
H	-1.7274177295	-1.3988529599	 0.6059126323	 0.090858
H	-1.3738847344	-0.1243884312	 1.7768969743	 0.098684
H	-0.1900669513	-0.3972299291	-1.0081524021	 0.070742
145.49	244.5381	315.4347	384.2935	582.0906	637.0218	680.6146	775.8023	803.9128	824.3821	859.0573	896.0428	908.8961	933.9879	947.1341	978.723	1041.6073	1076.7346	1083.9199	1119.7895	1173.3003	1184.3726	1207.7227	1233.4598	1236.1631	1254.7761	1276.1967	1305.9537	1332.1146	1341.855	1472.0775	1480.5717	1485.4621	1496.5925	1736.8414	3002.1926	3019.2126	3035.5866	3043.9232	3057.6984	3060.2504	3090.4626	3100.0371	3120.7989	3195.1442
C1CC2=CCCC12	C1C[C]2[CH]CC[C@@H]12	
InChI=1S/C7H10/c1-2-6-4-5-7(6)3-1/h2,7H,1,3-5H2	InChI=1S/C7H10/c1-2-6-4-5-7(6)3-1/h2,7H,1,3-5H2/t7-/m0/s1
