18
gdb 2014	5.43677	1.97945	1.90209	2.0193	67.67	-0.2238	0.0776	0.3015	769.9586	0.161268	-289.766576	-289.759826	-289.758882	-289.79732	25.879	
C	 0.0326397254	 1.5426023618	 0.0358014924	-0.38058
C	-0.0265049	 0.0109864675	-0.0064842533	-0.317045
C	-1.4369042476	-0.53183546	 0.017406315	 0.329805
C	-2.6038313247	-0.2999269476	-0.9792555951	-0.201095
N	-3.2556638306	-1.240684524	 0.048059822	-0.14366
C	-1.9204491353	-2.001640989	-0.0134774998	-0.214635
C	-2.5443319049	-0.3630276269	 1.0916218662	-0.201073
H	 1.0668530477	 1.8984811461	 0.0172715765	 0.115437
H	-0.4870078123	 1.9832338753	-0.8216453001	 0.119303
H	-0.4379114811	 1.9326109968	 0.9445886723	 0.119285
H	 0.4791424427	-0.3553596861	-0.9097477471	 0.099247
H	 0.5281238122	-0.4056620051	 0.844730191	 0.099251
H	-3.0678872937	 0.6899546257	-1.0163380856	 0.097016
H	-2.5220143568	-0.7367796315	-1.9792637268	 0.095438
H	-1.7848097667	-2.5703468971	-0.9384989514	 0.095428
H	-1.7330105689	-2.625322174	 0.8659416294	 0.095431
H	-2.405988399	-0.859789869	 2.0568361671	 0.095438
H	-3.0037885262	 0.6219310569	 1.2154651475	 0.09701
74.835	177.6924	209.6852	323.3084	395.4049	578.9146	585.4024	614.2647	753.5529	796.8907	806.9809	879.9401	935.1295	946.4467	965.6821	972.6129	999.6441	1025.1807	1068.6225	1073.7612	1164.9436	1167.6054	1174.5617	1197.7417	1199.2309	1201.0756	1264.7737	1305.2118	1323.1603	1376.5296	1408.8538	1479.58	1500.3394	1505.5321	1510.565	1511.0116	1564.3128	3014.1364	3034.4017	3038.0555	3038.2251	3046.1882	3049.6173	3100.7795	3102.5371	3107.1915	3108.1246	3110.1292
CCC12CN(C1)C2	CC[C@@]12CN(C1)C2	
InChI=1S/C6H11N/c1-2-6-3-7(4-6)5-6/h2-5H2,1H3	InChI=1S/C6H11N/c1-2-6-3-7(4-6)5-6/h2-5H2,1H3
