17
gdb 2459	5.90814	2.21076	1.86293	0.2646	69.74	-0.2156	0.0292	0.2447	739.0377	0.149694	-272.589883	-272.583485	-272.582541	-272.619709	25.267	
C	 0.0422499087	 1.4810659868	 0.0384104992	-0.488159
C	-0.0146324918	-0.0129580411	-0.0084859184	 0.316826
C	-0.0840468807	-0.7920005094	-1.094467289	-0.173431
C	-0.03635545	-2.2438185107	-0.7586593547	-0.061905
C	 1.2460025883	-2.7091760112	-0.0940231941	-0.27452
C	 0.0749327595	-2.2918665516	 0.7575161615	-0.033773
C	 0.0203941547	-0.8511703372	 1.2612743345	-0.309491
H	 0.9755031028	 1.8334000678	 0.4968710024	 0.122613
H	-0.0263744749	 1.9186500222	-0.961474344	 0.12138
H	-0.7744268938	 1.8914329188	 0.6469582587	 0.120882
H	-0.1268761864	-0.4259735516	-2.1150537607	 0.082445
H	-0.6248325716	-2.9584866508	-1.3238783296	 0.081003
H	 1.474484837	-3.7699286814	-0.1249438392	 0.104733
H	 2.111707758	-2.0569854841	-0.1580816567	 0.106391
H	-0.4328719307	-3.0621154101	 1.3257988234	 0.081282
H	 0.8787702992	-0.5929206685	 1.8965197161	 0.103098
H	-0.8750389586	-0.6708937179	 1.8733216406	 0.100627
163.1236	191.1198	310.7248	335.5783	397.4224	481.3526	601.1349	693.3958	787.6541	807.2928	840.0111	860.1221	893.8904	934.1482	971.4358	997.2627	1021.5365	1048.3292	1065.7199	1076.2266	1099.0167	1104.9465	1183.6248	1190.2753	1216.1561	1282.7896	1322.352	1353.6982	1377.2092	1413.7075	1471.3303	1478.6725	1482.11	1490.8669	1706.8211	3001.672	3012.9529	3029.8427	3055.6759	3106.6868	3118.2383	3162.179	3176.4683	3185.6335	3207.4958
CC1=CC2CC2C1	CC1=C[C@H]2C[C@H]2C1	
InChI=1S/C7H10/c1-5-2-6-4-7(6)3-5/h2,6-7H,3-4H2,1H3	InChI=1S/C7H10/c1-5-2-6-4-7(6)3-5/h2,6-7H,3-4H2,1H3/t6-,7+/m0/s1
