16
gdb 2487	4.78778	3.05692	2.59205	1.6386	63.44	-0.2385	0.0875	0.3261	606.2863	0.138149	-288.590804	-288.584943	-288.583999	-288.619955	23.458	
C	-0.0729413725	 1.5368406992	 0.0217165311	-0.495259
C	-0.0253248244	 0.037099102	 0.0076367832	 0.352053
C	 0.3930107039	-0.7622116775	-1.2488651675	-0.274077
C	-0.5815514219	-1.7994918671	-0.7287894617	-0.035214
C	-0.5117870289	-1.8112784064	 0.7637099256	-0.035218
C	 0.5077441396	-0.7815603977	 1.2069413244	-0.27407
N	-1.366200765	-0.7909031052	 0.0637810122	-0.191035
H	 0.9403717207	 1.9533949732	-0.0219818638	 0.119931
H	-0.6355976096	 1.9180917421	-0.8363412545	 0.125401
H	-0.5534612268	 1.90403067	 0.9341150399	 0.125415
H	 0.014911682	-0.2903537994	-2.160241952	 0.106492
H	 1.449763834	-1.022322701	-1.3758886985	 0.092634
H	-1.0850926025	-2.5823234491	-1.2851250168	 0.091911
H	-0.961810561	-2.6031652202	 1.3521673412	 0.091909
H	 1.5715520962	-1.0428302921	 1.2307875841	 0.09263
H	 0.2165936663	-0.324382471	 2.1569089332	 0.106495
192.0553	272.4	303.6552	424.7818	439.0021	614.8319	734.5382	758.6055	793.1304	813.5253	822.5907	902.945	957.6583	999.0389	1007.6779	1022.4821	1032.2629	1039.1792	1101.3502	1114.8984	1126.2996	1160.9014	1232.2789	1245.7081	1251.8572	1334.3328	1338.736	1376.8572	1413.5247	1479.1361	1487.6374	1491.5616	1506.0862	3027.8626	3032.6844	3039.1377	3095.044	3095.4107	3098.4132	3107.0277	3170.6317	3182.6039
CC12CC3C(C1)N23	C[C@@]12C[C@H]3[C@@H](C1)N23	
InChI=1S/C6H9N/c1-6-2-4-5(3-6)7(4)6/h4-5H,2-3H2,1H3	InChI=1S/C6H9N/c1-6-2-4-5(3-6)7(4)6/h4-5H,2-3H2,1H3/t4-,5+,6+,7?
