13
gdb 4243	3.87327	2.00606	1.32158	2.387	64.38	-0.2295	-0.0273	0.2022	847.7646	0.099168	-394.857481	-394.851096	-394.850152	-394.888044	24.51	
N	-0.0812458745	 1.3445085114	 0.0105374273	-0.538947
C	-0.0439371802	 0.0662088589	 0.0035315826	 0.387275
N	 1.1371709618	-0.7048267188	-0.0073534777	-0.437263
C	 1.2566801023	-2.0828430666	-0.0153936354	 0.484792
O	 2.319432449	-2.6649302737	-0.0245882497	-0.393058
N	 0.033881255	-2.7381092914	-0.0118427254	-0.378634
C	-1.1783779398	-2.0800142343	-0.0013818954	 0.026603
C	-1.255522372	-0.7400619894	 0.0061884386	-0.157478
H	 0.8549961808	 1.752590215	 0.0073320567	 0.204622
H	 2.0249613489	-0.2229663144	-0.0098935277	 0.260924
H	 0.0886022817	-3.7434026389	-0.0175132233	 0.273938
H	-2.0518823716	-2.7202533278	 0.0002285777	 0.139921
H	-2.2029233615	-0.22277089	 0.0143773315	 0.127306
142.3412	155.9763	374.5823	391.8754	515.2004	523.9837	536.7816	559.592	613.6776	711.2301	765.4575	774.6589	808.8049	843.7053	964.6272	969.1479	988.0044	1077.4658	1147.2391	1205.2514	1281.0318	1394.1131	1415.5821	1430.3344	1488.8181	1679.7357	1728.9832	1832.1496	3213.4282	3257.0826	3459.8993	3616.8726	3662.135
N=C1NC(=O)NC=C1	[NH]C1=C[CH]NC(=O)N1	
InChI=1S/C4H5N3O/c5-3-1-2-6-4(8)7-3/h1-2H,(H3,5,6,7,8)	InChI=1S/C4H5N3O/c5-3-1-2-6-4(8)7-3/h1-2H,(H3,5,6,7,8)
