7
gdb 778	9.89124	4.17925	2.93792	3.3641	32.83	-0.2998	-0.0327	0.2672	391.4571	0.038724	-357.171724	-357.167571	-357.166627	-357.199275	14.093	
O	-0.0324817909	-0.0129324292	 0.0034974437	-0.345717
C	-0.007070366	 1.1696186978	 0.009207325	 0.538576
O	-1.115828227	 2.0089519861	 0.0284112736	-0.189949
C	-0.609052804	 3.2562697003	 0.0284281458	 0.131619
N	 0.6664396487	 3.3341889543	 0.0121196928	-0.10227
O	 1.0851735555	 1.9789781765	-0.0005520343	-0.22745
H	-1.2855162562	 4.0966981242	 0.0418254634	 0.19519
243.0836	512.2966	607.9823	744.6532	768.7631	859.5926	889.9412	932.0568	948.5396	1081.0332	1202.3469	1299.2439	1665.3873	1960.0166	3282.9017
O=C1OC=NO1	O=c1ocno1	
InChI=1S/C2HNO3/c4-2-5-1-3-6-2/h1H	InChI=1S/C2HNO3/c4-2-5-1-3-6-2/h1H
