17
gdb 1354	4.10869	2.42389	2.32418	0.7558	59.97	-0.2478	0.0851	0.3329	696.107	0.147486	-346.868661	-346.861257	-346.860313	-346.900146	27.271	
C	-0.0723746205	 1.5685029408	 0.3203368863	-0.408291
C	 0.0281241233	 0.0762858112	 0.0145703295	 0.453811
C	-1.3314541557	-0.5763860602	-0.221738415	-0.408299
O	 0.869824901	-0.0838188929	-1.1313131814	-0.290657
C	 1.8375920113	-1.0763609063	-0.8309703499	-0.096056
C	 1.9888772444	-0.9379984041	 0.6809698551	-0.096088
O	 0.6693279586	-0.6162959194	 1.0898747252	-0.290625
H	 0.9206041798	 1.973663857	 0.5300858108	 0.117272
H	-0.4914646649	 2.1033300103	-0.536391778	 0.123
H	-0.7141423689	 1.7354841325	 1.1894961102	 0.12036
H	-1.8587451528	-0.07117663	-1.035318312	 0.120365
H	-1.1989824091	-1.6286730836	-0.4849813665	 0.117281
H	-1.9415247958	-0.5194193255	 0.6839266975	 0.122998
H	 1.481683114	-2.0810911349	-1.1044041195	 0.096673
H	 2.7489747953	-0.8571914508	-1.3936017414	 0.110789
H	 2.2965655041	-1.8576397454	 1.1857363143	 0.110798
H	 2.696602976	-0.1354184987	 0.9377056047	 0.09667
50.5607	197.4724	219.6894	240.1707	335.0154	350.0575	392.1238	495.0221	636.0193	648.5894	787.7025	846.1042	913.5233	918.9745	950.8979	966.2901	997.6777	1075.566	1101.087	1153.6036	1168.0579	1232.4624	1237.9468	1242.7752	1269.1812	1372.373	1384.3103	1398.0804	1411.7599	1471.3376	1476.7678	1494.205	1494.9452	1514.6463	1520.688	2985.5218	2995.7581	3045.4024	3050.3217	3090.4397	3095.7312	3122.1424	3127.2292	3130.2153	3130.4334	50.5606	197.4723	219.6896	240.1706	335.0154	350.0575	392.1238	495.0221	636.0193	648.5894	787.7025	846.104	913.5232	918.9745	950.8978	966.29	997.6777	1075.5659	1101.0868	1153.6035	1168.0578	1232.4622	1237.9467	1242.775	1269.1811	1372.3728	1384.3101	1398.0804	1411.7599	1471.3377	1476.7679	1494.205	1494.9453	1514.646	1520.6878	2985.5217	2995.758	3045.4024	3050.3217	3090.4396	3095.7312	3122.1424	3127.2292	3130.2153	3130.4334
CC1(C)OCCO1	CC1(C)OCCO1	
InChI=1S/C5H10O2/c1-5(2)6-3-4-7-5/h3-4H2,1-2H3	InChI=1S/C5H10O2/c1-5(2)6-3-4-7-5/h3-4H2,1-2H3
