21
gdb 1974	6.49486	1.34605	1.24074	0.1113	75.11	-0.2798	0.089	0.3688	1060.4553	0.194759	-274.988525	-274.980298	-274.979354	-275.020849	30.76	
C	 0.0389171527	 1.5545174608	 0.1014845293	-0.377039
C	-0.1412345092	 0.0416776472	-0.0610572462	-0.194444
C	 0.6588920937	-0.5374032436	-1.2206105587	 0.072401
C	 2.2119533489	-0.5816219932	-1.128327976	-0.238509
C	 2.1801691633	-1.9723397089	-1.8228163997	 0.061763
C	 3.1450445453	-3.0536192617	-1.3619575333	-0.406391
C	 0.6787892271	-2.076767658	-1.4326139679	-0.256644
H	 1.0898570745	 1.811467961	 0.2732715498	 0.117449
H	-0.2888142596	 2.0904463134	-0.7964632899	 0.111842
H	-0.539809064	 1.938186992	 0.9475489389	 0.109451
H	 0.1562386396	-0.4661543831	 0.8666749819	 0.087405
H	-1.2055059407	-0.1887049274	-0.2059477638	 0.091443
H	 0.3621477392	-0.0408092281	-2.1531777093	 0.063252
H	 2.785499458	 0.2179712781	-1.6046334727	 0.090052
H	 2.5407072949	-0.6705785185	-0.0855019474	 0.089863
H	 2.2657169299	-1.8388932115	-2.9077028305	 0.067647
H	 3.07701958	-3.2045938128	-0.2782727341	 0.108226
H	 2.9301920289	-4.0136250976	-1.845335964	 0.111388
H	 4.1827107148	-2.78916748	-1.5959288383	 0.111295
H	 0.5561056413	-2.606415624	-0.4801383651	 0.090204
H	-0.0154540084	-2.5071858541	-2.1595447231	 0.089347
81.2451	104.8959	187.4223	234.0327	243.0139	303.621	389.0757	404.1251	429.1372	581.1094	757.7199	788.4498	810.5671	895.8492	902.6875	941.1538	953.4804	972.5055	996.7273	1022.3365	1082.4306	1118.9761	1141.2035	1156.4034	1200.7334	1233.5244	1243.0381	1265.9762	1270.4113	1294.5423	1310.1623	1346.1527	1370.3728	1397.4085	1409.6245	1412.4629	1475.6768	1484.8135	1494.895	1496.7624	1499.7378	1503.2381	1508.1361	3007.064	3018.6067	3020.0463	3028.5612	3029.5854	3029.8701	3037.7442	3043.2849	3086.4717	3086.8825	3090.7197	3095.2839	3098.2497	3101.2799
CCC1CC(C)C1	CC[C@H]1C[C@@H](C)C1	
InChI=1S/C7H14/c1-3-7-4-6(2)5-7/h6-7H,3-5H2,1-2H3	InChI=1S/C7H14/c1-3-7-4-6(2)5-7/h6-7H,3-5H2,1-2H3/t6-,7+
