18
gdb 4038	3.37028	1.48808	1.2536	1.2266	71.48	-0.2363	0.0028	0.2392	1030.5544	0.151866	-381.059702	-381.050648	-381.049703	-381.093421	33.05	
C	-0.2647678121	 1.4438005329	 0.0089922844	-0.486918
C	-0.0122020879	-0.0416405406	 0.0424993279	 0.278693
N	 0.1476794743	-0.7205722746	 1.1153216426	-0.169362
O	 0.0534595868	 0.0768534332	 2.2664353463	-0.395158
C	 0.0438058175	-0.7932873868	-1.2545635204	 0.274576
C	 1.005043001	-0.2425242488	-2.2902405986	-0.457339
C	-0.2890304606	-2.2367523194	-1.2556707843	-0.270258
N	-1.2515981889	-1.2637884383	-1.8149537879	-0.35554
H	 0.6783280517	 1.9999782772	 0.0662746107	 0.146006
H	-0.7707867575	 1.7326134022	-0.9148519021	 0.133214
H	-0.8671369617	 1.7452708346	 0.8677510446	 0.151759
H	 0.1700450391	-0.5712987037	 2.9690323847	 0.306705
H	 2.0397812573	-0.3189270785	-1.9392514029	 0.121635
H	 0.9071886142	-0.8067294464	-3.2205691668	 0.131874
H	 0.7984044086	 0.8086705505	-2.515021586	 0.119969
H	 0.1773308988	-2.8843600292	-1.9929690936	 0.112776
H	-0.5132991885	-2.7056526392	-0.3045772017	 0.128447
H	-1.990907102	-1.1087430552	-1.1317102169	 0.22892
50.6872	106.8351	164.6087	206.3451	221.6533	308.1991	348.277	352.4364	370.1457	440.8827	500.1382	533.5451	586.7972	731.7946	819.0315	859.2437	922.9005	959.7574	979.1985	1016.3173	1034.2967	1053.3357	1081.3124	1112.8077	1129.8384	1195.2424	1272.3928	1334.5783	1365.7783	1399.3404	1412.8579	1415.2746	1476.5659	1481.8074	1491.1833	1501.6171	1509.093	1715.3506	3037.193	3042.4661	3101.4495	3107.3089	3121.0962	3126.6829	3144.3288	3217.6494	3481.3315	3820.3643
CC(=NO)C1(C)CN1	CC(=NO)[C@@]1(C)CN1	
InChI=1S/C5H10N2O/c1-4(7-8)5(2)3-6-5/h6,8H,3H2,1-2H3	InChI=1S/C5H10N2O/c1-4(7-8)5(2)3-6-5/h6,8H,3H2,1-2H3/t5-/m1/s1
