14
gdb 252	7.60425	2.09483	1.75454	1.4348	54.82	-0.2622	0.0545	0.3167	692.7907	0.117241	-270.401061	-270.39373	-270.392786	-270.431817	26.225	
C	-0.0510329879	 0.8585190417	-0.6570733655	-0.404362
C	 0.1735654541	-0.1176842759	 0.4948389266	 0.139386
O	 0.4817730526	 0.5582319236	 1.7088678519	-0.434019
C	-1.0766628465	-0.9567731322	 0.8169453129	-0.3343
C	-1.4671535903	-1.8520271882	-0.2626853359	 0.300765
C	-1.7734788173	-2.5885589416	-1.1620435066	-0.459861
H	 0.8616473624	 1.4283392582	-0.8663605064	 0.105297
H	-0.3309602875	 0.3242823368	-1.5691708023	 0.135754
H	-0.8473713644	 1.5666080976	-0.4048609691	 0.122702
H	 0.9866987629	-0.8109768831	 0.2271174003	 0.077504
H	 1.2132288457	 1.1591198416	 1.5367446398	 0.282666
H	-0.8691026062	-1.5318373416	 1.7266823629	 0.139645
H	-1.8991439089	-0.2730335033	 1.0623741414	 0.133732
H	-2.0524421088	-3.2427905937	-1.9503464601	 0.195091
89.2533	152.2176	248.9268	263.0748	337.1724	358.2229	389.0503	466.8677	522.5453	621.1286	647.2089	839.1409	896.178	948.4627	981.9198	1079.8724	1102.2985	1128.5212	1225.4886	1271.8166	1322.7322	1383.3298	1407.2295	1419.6217	1470.9143	1494.4753	1498.6878	2239.3282	2975.277	3029.5493	3031.6113	3069.6698	3097.4871	3122.3793	3506.7804	3824.2797
CC(O)CC#C	C[C@@H](O)CC#C	
InChI=1S/C5H8O/c1-3-4-5(2)6/h1,5-6H,4H2,2H3	InChI=1S/C5H8O/c1-3-4-5(2)6/h1,5-6H,4H2,2H3/t5-/m1/s1
