13
gdb 4562	4.09452	1.80732	1.26391	3.0274	56.36	-0.1975	0.0474	0.2449	889.6083	0.094933	-435.785975	-435.778304	-435.777359	-435.818106	26.892	
C	-0.0227729708	 1.4537919355	 0.0099421914	-0.344052
N	-0.0421356697	 0.0090263217	 0.0005423923	-0.119997
C	-1.1888626712	-0.8204212144	 0.0034683736	-0.260419
C	-0.7226878151	-2.0736514012	-0.0070325364	 0.404774
O	-1.3428746914	-3.2589707919	-0.0096568534	-0.41785
O	 0.6447673822	-2.0855291731	-0.0163464078	-0.254865
C	 1.0891897076	-0.7534001962	-0.0119165462	 0.488849
O	 2.2502622564	-0.4414055036	-0.0173809347	-0.409665
H	 1.0224103184	 1.7656636533	 0.0028505534	 0.173542
H	-0.5262774823	 1.8597710223	-0.8742230285	 0.13703
H	-0.5106784577	 1.8482120825	 0.9080029162	 0.137047
H	-2.1911835131	-0.4351585	 0.0125829037	 0.148412
H	-0.6678306535	-3.9483371349	-0.0182634536	 0.317195
115.8026	132.9093	147.1313	215.5326	279.6959	325.0078	348.9332	563.7314	617.6398	621.3222	662.3126	695.4513	748.1987	853.8822	979.9347	1032.7149	1082.5028	1159.2672	1166.1822	1234.8905	1333.8896	1380.6361	1433.0805	1469.0498	1491.2458	1517.9823	1779.2713	1891.831	3029.3909	3084.4164	3152.4878	3309.7031	3814.7443
CN1C=C(O)OC1=O	Cn1cc(O)oc1=O	
InChI=1S/C4H5NO3/c1-5-2-3(6)8-4(5)7/h2,6H,1H3	InChI=1S/C4H5NO3/c1-5-2-3(6)8-4(5)7/h2,6H,1H3
