9
gdb 1367	8.97408	1.46004	1.26545	2.5898	49.53	-0.3277	-0.1151	0.2126	825.6378	0.053602	-338.257996	-338.25117	-338.250226	-338.289512	22.051	
O	-0.1072464844	-0.1050864701	 0.0015090205	-0.221685
C	-0.0408215923	 1.09142041	 0.005921187	 0.303643
C	 1.2523477511	 1.905179649	-0.0007830317	-0.448908
C	 2.4502806801	 1.076050259	-0.0147065284	 0.283073
N	 3.4120425948	 0.4387227926	-0.0257731594	-0.274256
C	-1.2537148338	 1.9311722821	 0.0192092752	 0.233724
N	-2.1925933094	 2.6056476157	 0.029415794	-0.27805
H	 1.2384227693	 2.5715999154	-0.8729914108	 0.201214
H	 1.2527805747	 2.5628210862	 0.8781972338	 0.201245
55.2269	121.4184	189.4062	265.9151	370.2165	389.6129	498.1171	579.3793	603.101	837.0465	942.2005	958.4453	1074.7905	1217.7927	1342.9547	1426.4963	1822.4922	2341.4292	2382.2372	3037.8898	3072.2891
O=C(CC#N)C#N	O=C(CC#N)C#N	
InChI=1S/C4H2N2O/c5-2-1-4(7)3-6/h1H2	InChI=1S/C4H2N2O/c5-2-1-4(7)3-6/h1H2
