19
gdb 3198	3.68948	3.201	2.76562	0.0607	69.16	-0.2839	0.078	0.3619	641.2728	0.176672	-273.812948	-273.807327	-273.806383	-273.841982	23.683	
C	-0.0319475765	 1.5654591303	-0.0078795755	-0.201697
C	 1.4761686537	 1.9814145188	-0.0206869572	-0.201697
C	 2.2143452826	 0.6227318715	 0.0063379897	 0.011526
C	 2.0356098518	-0.0029432208	 1.4092778705	-0.201698
C	 0.5274937063	-0.4189025415	 1.4220683816	-0.201697
C	 0.0312185693	 0.0205988533	 0.0248585617	 0.011526
C	 1.274913985	-0.2564168988	-0.8461299337	-0.213321
H	-0.5755125451	 1.9714938061	 0.8506065615	 0.090293
H	-0.5445162917	 1.915542744	-0.9093052115	 0.090731
H	 1.722524958	 2.5408071858	-0.9285655301	 0.090732
H	 1.7482272692	 2.6124208394	 0.8308640611	 0.090293
H	 3.2543953451	 0.6796103014	-0.3216297482	 0.050851
H	 2.6854984727	-0.8748543916	 1.5328450338	 0.090732
H	 2.2867247504	 0.7023029658	 2.2073345305	 0.090293
H	 0.4184640824	-1.5001388476	 1.5520508814	 0.090731
H	-0.0370106937	 0.0613661292	 2.227053653	 0.090293
H	-0.8959781355	-0.4651110682	-0.2864194126	 0.050851
H	 1.1689449882	 0.0960774358	-1.8773994893	 0.085629
H	 1.5658914275	-1.311904393	-0.8627920266	 0.085629
169.7458	339.6646	402.236	448.8421	548.2136	759.691	765.0897	801.1316	822.0009	824.8456	882.812	900.059	933.1644	957.3359	959.984	965.4052	966.8478	1003.8931	1037.1105	1094.79	1126.4094	1140.8388	1165.3931	1185.4086	1236.5695	1239.5053	1274.392	1284.7274	1291.7475	1306.5451	1327.8351	1349.1043	1349.9731	1351.4149	1484.2294	1491.8809	1497.39	1501.7109	1525.5149	3040.1398	3040.1884	3040.8945	3050.6813	3051.8621	3072.7526	3075.7587	3088.0182	3088.2243	3093.4121	3094.6897	3099.8876
C1CC2CCC1C2	C1C[C@H]2CC[C@@H]1C2	
InChI=1S/C7H12/c1-2-7-4-3-6(1)5-7/h6-7H,1-5H2	InChI=1S/C7H12/c1-2-7-4-3-6(1)5-7/h6-7H,1-5H2/t6-,7+
