19
gdb 2330	5.76714	1.24382	1.12254	1.3012	67.96	-0.2608	0.0816	0.3424	1089.0458	0.170792	-310.903589	-310.895083	-310.894138	-310.936654	30.46	
C	 0.0509938139	 1.5625595252	-0.1825841371	-0.40332
C	 0.0406074794	 0.0610771062	 0.007227257	-0.003436
C	 1.3182086837	-0.7429607241	-0.0331953358	-0.29168
C	 0.544540257	-0.6181106265	 1.2620155086	 0.006603
C	 1.1139943867	 0.1385525695	 2.4431689368	-0.198168
C	 2.0382289909	-0.7288123587	 3.2915594373	-0.063021
O	 2.5061149746	 0.060897457	 4.3754369652	-0.423044
H	 0.9482046818	 2.0240460405	 0.2390670447	 0.11782
H	 0.0247864462	 1.8166062718	-1.2481467101	 0.114959
H	-0.8178539869	 2.0332111288	 0.2915255194	 0.115863
H	-0.8212743139	-0.4234859652	-0.4455635167	 0.080045
H	 1.3310779012	-1.6939529646	-0.5547894287	 0.105204
H	 2.2486190647	-0.1865463355	-0.1070200803	 0.106229
H	-0.0180691914	-1.5042617552	 1.5498602244	 0.076622
H	 1.6805167495	 1.0148856024	 2.1118043837	 0.103555
H	 0.3071995101	 0.5130385861	 3.0858611351	 0.103789
H	 1.4887581513	-1.6143667849	 3.6519201929	 0.080547
H	 2.8722238504	-1.094663459	 2.6716366921	 0.087377
H	 3.0947348208	-0.4803370139	 4.9092294315	 0.284055
79.0102	96.2875	125.0809	195.6375	252.3359	261.6778	317.8675	378.5449	457.8473	507.6675	758.035	798.1289	837.3968	866.9991	905.4983	942.8444	1000.2231	1036.0073	1057.0574	1075.6548	1094.3443	1112.8599	1151.7954	1183.1539	1199.3773	1235.8629	1241.8821	1252.3002	1312.2029	1326.7109	1393.5749	1419.491	1430.3991	1460.3792	1485.7504	1493.9796	1498.8886	1506.6494	1527.0898	2960.3621	2989.2492	3028.2622	3032.9121	3080.3231	3085.5098	3106.439	3117.9914	3121.0158	3134.6123	3204.7525	3831.0442
CC1CC1CCO	C[C@H]1C[C@H]1CCO	
InChI=1S/C6H12O/c1-5-4-6(5)2-3-7/h5-7H,2-4H2,1H3	InChI=1S/C6H12O/c1-5-4-6(5)2-3-7/h5-7H,2-4H2,1H3/t5-,6+/m0/s1
