17
gdb 4175	3.40608	1.81942	1.34827	1.1585	72.13	-0.2299	0.0148	0.2448	932.2433	0.141629	-363.793275	-363.785534	-363.784589	-363.825016	29.604	
C	-0.0904814224	 1.6180593672	-0.0113574277	-0.408853
C	 0.0621035034	 0.1007398158	-0.001489139	-0.079647
C	 0.7156769425	-0.6219237504	-1.2039809071	-0.062189
C	 2.1625013686	-0.2677687455	-1.3261037361	-0.28194
C	 1.7583968556	-1.279561273	-0.2700870264	-0.142763
C	 1.1255809835	-0.5737185345	 0.8741641231	 0.431955
N	 1.340286622	-0.6877097999	 2.1179678539	-0.271331
O	 0.4380135429	 0.1138879069	 2.8559430643	-0.399925
H	 0.8508948678	 2.1196360014	-0.2542018429	 0.115648
H	-0.8357375574	 1.9253243457	-0.7528808356	 0.113419
H	-0.4133748981	 1.9700433465	 0.9714926637	 0.140541
H	-0.9019085863	-0.363566091	 0.2396834947	 0.102382
H	 0.1680329418	-1.093964891	-2.0096038419	 0.095229
H	 2.6777181106	-0.6981528299	-2.1791521457	 0.119217
H	 2.5326275221	 0.7105392259	-1.0344785406	 0.119737
H	 2.1507172747	-2.2879414999	-0.2609201754	 0.103738
H	 0.7059717188	-0.0686366444	 3.7624321288	 0.304782
115.4932	172.642	208.4399	246.785	276.5463	331.6693	407.8684	466.7598	543.0288	619.6822	686.1262	750.1884	788.2091	815.2808	909.1658	925.6459	964.8971	977.7198	1002.2567	1050.2158	1075.599	1088.8681	1093.2046	1128.4492	1174.2739	1189.0016	1232.1335	1295.3087	1338.612	1349.4304	1406.7304	1410.0471	1487.3897	1495.5466	1504.3392	1781.7388	3038.4463	3039.4634	3104.8894	3121.9509	3125.8867	3192.8475	3200.6356	3210.9025	3823.4392
CC1C2CC2C1=NO	C[C@H]1[C@H]2C[C@H]2C1=NO	
InChI=1S/C6H9NO/c1-3-4-2-5(4)6(3)7-8/h3-5,8H,2H2,1H3	InChI=1S/C6H9NO/c1-3-4-2-5(4)6(3)7-8/h3-5,8H,2H2,1H3/t3-,4+,5+/m0/s1
