10
gdb 3937	7.53214	2.25159	1.73342	3.0837	43.47	-0.226	0.0354	0.2615	638.3797	0.068999	-392.662003	-392.656302	-392.655357	-392.691229	21.127	
O	 0.1183703387	 1.2823522036	 0.1135075608	-0.414967
C	 0.0861850393	-0.047505266	 0.0008564815	 0.469659
N	 0.1975250636	-0.7579904742	-1.1032504396	-0.452239
C	 0.0936268668	-2.0340792786	-0.6181547752	 0.435621
O	 0.1555408605	-3.1030656232	-1.4215822026	-0.404932
N	-0.0705881042	-2.1608427197	 0.680005416	-0.296
N	-0.0728509005	-0.8355911507	 1.070689255	-0.257175
H	 0.2400601688	 1.6384187485	-0.7755844586	 0.322523
H	 0.277473835	-2.7701200309	-2.3181803232	 0.310995
H	-0.1830886978	-0.5849846288	 2.0376105058	 0.286517
237.6834	342.6173	347.7994	383.7617	404.9516	462.6332	519.6626	665.5306	715.2475	771.3508	800.4801	1018.9207	1093.2795	1126.6334	1189.3675	1234.8169	1348.7656	1440.6856	1548.6901	1636.7328	1673.9556	3690.7915	3809.1378	3823.4862
OC1=NC(O)=NN1	Oc1nc(O)n[nH]1	
InChI=1S/C2H3N3O2/c6-1-3-2(7)5-4-1/h(H3,3,4,5,6,7)	InChI=1S/C2H3N3O2/c6-1-3-2(7)5-4-1/h(H3,3,4,5,6,7)
