12
gdb 3763	4.061	3.60775	1.93391	1.4073	53.03	-0.2128	0.0024	0.2152	621.336	0.091052	-356.700248	-356.693838	-356.692894	-356.731272	22.052	
C	 0.1245959697	 1.4067847842	-0.0374151655	-0.325396
N	 0.1004485808	-0.0338635139	 0.0100960422	-0.05218
N	 0.1788410864	-0.8029666891	-1.1315774027	-0.223358
C	 0.1269276711	-2.0050235632	-0.6964610238	 0.083543
O	 0.0188886413	-2.1169203742	 0.6558047546	-0.202949
C	-0.0000945752	-0.8084891917	 1.1402594797	 0.466762
N	-0.0891915728	-0.4235202946	 2.3418086018	-0.608339
H	 1.0582134629	 1.7645754719	-0.4819911766	 0.142126
H	-0.7192244061	 1.7901090381	-0.6191325851	 0.14208
H	 0.0501693356	 1.7595707248	 0.991906396	 0.178262
H	 0.1597405725	-2.9084782079	-1.282070674	 0.16761
H	-0.1511371562	-1.2081018644	 2.9828602035	 0.231838
46.657	131.8161	228.9016	293.1907	488.3131	623.0267	668.8504	689.3456	724.6511	784.6742	813.894	944.1602	976.0093	1022.8277	1098.6925	1159.7734	1210.7126	1276.7813	1310.1984	1426.2137	1452.7631	1484.5727	1514.499	1645.7488	1793.9892	3041.1305	3102.3718	3158.7555	3295.2823	3559.284
CN1N=COC1=N	CN1N=CO[C@H]1[NH]	
InChI=1S/C3H5N3O/c1-6-3(4)7-2-5-6/h2,4H,1H3	InChI=1S/C3H6N3O/c1-6-3(4)7-2-5-6/h2-4H,1H3/t3-/m0/s1
