9
gdb 94	12.18264	4.94228	3.68162	0.8477	35.94	-0.2647	-0.0352	0.2295	344.5473	0.066989	-267.068488	-267.063976	-267.063032	-267.095887	15.115	
O	-0.0003169236	 0.0067632072	-0.1713977373	-0.25511
C	-0.0141709816	 1.1867286531	-0.0098027859	 0.342417
C	-1.0828311965	 2.2765338108	 0.1557409411	-0.181864
O	-0.038561151	 3.2646042342	 0.2751398568	-0.267543
C	 1.0285726966	 2.3051569328	 0.127743107	-0.181864
H	-1.7292385512	 2.4364750685	-0.7167127379	 0.135987
H	-1.7021989781	 2.1934672545	 1.0580075419	 0.135995
H	 1.6736678087	 2.2392329281	 1.0132417928	 0.135995
H	 1.6470506767	 2.4822454807	-0.7614835485	 0.135987
149.8717	411.8077	451.3933	691.9191	763.255	847.0694	1009.0727	1013.0076	1068.5347	1080.4335	1124.4052	1152.2688	1272.2864	1317.5331	1462.4215	1493.3296	1929.9165	3011.3333	3024.4062	3064.6685	3065.9461
O=C1COC1	O=C1COC1	
InChI=1S/C3H4O2/c4-3-1-5-2-3/h1-2H2	InChI=1S/C3H4O2/c4-3-1-5-2-3/h1-2H2
