17
gdb 2177	3.72246	2.68778	1.90955	1.6936	59.79	-0.2408	0.0672	0.308	722.4396	0.148723	-346.856604	-346.849193	-346.848249	-346.887988	26.966	
C	-0.4919775203	 1.4309579421	 0.0527061341	-0.413063
C	 0.139849923	 0.0427920822	 0.0123391146	 0.005826
C	 1.2058387376	-0.159315951	-1.0729763654	-0.065946
O	 1.9647812758	-1.2990178789	-0.6735903104	-0.264369
C	 1.783366055	-1.5247944435	 0.7208118266	-0.083403
C	 0.9339408125	-0.366961654	 1.2644757572	 0.08742
O	 1.7255020972	 0.7474494285	 1.658224637	-0.434755
H	 0.2636154275	 2.1941037053	 0.2505478285	 0.140089
H	-0.9794625983	 1.6628051644	-0.8999919357	 0.111449
H	-1.2511656262	 1.4966594823	 0.8384916811	 0.113881
H	-0.6408988738	-0.7149250123	-0.1319502324	 0.078416
H	 0.780700522	-0.3579039091	-2.0622674355	 0.099559
H	 1.853944088	 0.7267928066	-1.1434797223	 0.098185
H	 1.2788251265	-2.4900809259	 0.875805915	 0.092507
H	 2.7612178325	-1.5721934314	 1.2202399276	 0.086295
H	 0.2816077927	-0.6912175621	 2.0879292227	 0.063218
H	 2.3377363482	 0.4559905168	 2.3403569672	 0.28469
85.9296	153.3761	207.4008	257.788	262.666	326.598	397.4325	526.4156	626.9285	748.7801	852.5612	867.5576	929.9008	942.186	963.7018	1011.785	1031.2671	1092.4942	1133.1716	1148.9276	1167.2518	1197.1155	1235.4703	1256.5385	1319.3126	1329.431	1361.8489	1372.4177	1392.9928	1408.6066	1433.7896	1494.8965	1503.1452	1509.9571	1523.9985	2984.3107	2994.1845	3004.6468	3023.0018	3030.7017	3040.8013	3070.1434	3100.3384	3132.5703	3827.4643
CC1COCC1O	C[C@H]1COC[C@H]1O	
InChI=1S/C5H10O2/c1-4-2-7-3-5(4)6/h4-6H,2-3H2,1H3	InChI=1S/C5H10O2/c1-4-2-7-3-5(4)6/h4-6H,2-3H2,1H3/t4-,5+/m0/s1
