16
gdb 3530	7.19371	2.38324	2.29841	1.0862	64.88	-0.2101	0.0886	0.2987	644.9051	0.137621	-288.535621	-288.529915	-288.528971	-288.564652	22.966	
C	 0.026493633	 1.5306265292	-0.1748041013	-0.324323
N	 0.0273703018	 0.0779232085	-0.0391366122	-0.116081
C	-1.1011612789	-0.5066517649	 0.7486887468	 0.002781
C	-0.2386060258	-1.7335359825	 1.1736106361	-0.05035
C	-0.6221368038	-1.5903870173	 2.658628536	-0.274065
C	-0.5330427777	-0.1307999127	 2.1707595651	-0.069519
C	 0.664625349	-0.4633981191	 1.2005652585	 0.00278
H	 1.0162085419	 1.8611014865	-0.5076579664	 0.117342
H	-0.6959931713	 1.819152507	-0.9457174775	 0.117342
H	-0.2235387528	 2.0773669372	 0.7501118784	 0.092627
H	-2.1389001431	-0.4969004265	 0.408923667	 0.076873
H	-0.0624640286	-2.6235867207	 0.5704963973	 0.080074
H	-1.6142302352	-1.9514772597	 2.9461625513	 0.095286
H	 0.1255089395	-1.9088608622	 3.3913711036	 0.095286
H	-0.7011610677	 0.7828548017	 2.7402651064	 0.077073
H	 1.7363705197	-0.4019773745	 1.4006320708	 0.076874
223.6509	248.0198	287.3094	427.5355	553.0857	729.6768	730.7302	811.4424	819.9421	848.037	882.1466	885.9437	919.23	962.1399	1021.4385	1032.1883	1069.5331	1091.4147	1132.451	1140.7484	1152.8124	1160.6765	1175.417	1183.0516	1189.9426	1210.4617	1252.9691	1295.7096	1324.9004	1447.971	1492.375	1498.9838	1515.0448	2963.1044	3044.0098	3059.7578	3091.6668	3093.3797	3095.1216	3098.6839	3117.7204	3128.1137
CN1C2C3CC2C13	CN1[C@H]2[C@@H]3C[C@H]2[C@H]13	
InChI=1S/C6H9N/c1-7-5-3-2-4(5)6(3)7/h3-6H,2H2,1H3	InChI=1S/C6H9N/c1-7-5-3-2-4(5)6(3)7/h3-6H,2H2,1H3/t3-,4+,5-,6+
