17
gdb 1920	4.64219	2.84168	2.44488	0.1766	68.19	-0.2212	0.018	0.2391	643.7864	0.14978	-272.554824	-272.548828	-272.547883	-272.584029	24.764	
C	-0.0134144763	 1.5503273351	 0.0263886724	-0.507596
C	 0.0270439543	 0.0394588521	 0.0274497761	 0.309632
C	 0.9742722674	-0.7953133727	-0.9127970237	-0.235913
C	 0.6147517488	-1.9275093305	 0.1075665329	-0.07061
C	 0.6639642983	-0.8021599398	 1.1954227087	-0.235913
C	-0.9018337577	-2.0260213544	-0.1159811476	-0.087431
C	-1.284413512	-0.748504522	-0.1681385959	-0.114698
H	 0.984593204	 1.9756683642	 0.1748542234	 0.11269
H	-0.4016877734	 1.9352392339	-0.9236081694	 0.116403
H	-0.6596077591	 1.9295712547	 0.8263982841	 0.1164
H	 0.6597206579	-0.9326549073	-1.9504720496	 0.088412
H	 2.0209348274	-0.4756811329	-0.8598275992	 0.086506
H	 1.1945328859	-2.8461988085	 0.1899215242	 0.057582
H	 1.6812002274	-0.4831721733	 1.4483087267	 0.086505
H	 0.0638969235	-0.9458044701	 2.0975648317	 0.088412
H	-1.4820581216	-2.9336627592	-0.2043300859	 0.09632
H	-2.2649262148	-0.3148398593	-0.3110462289	 0.093298
201.3536	283.1244	295.0017	456.43	533.5209	538.2062	608.7164	700.2791	724.6752	828.5453	839.4865	842.0372	890.4391	908.0246	929.3631	946.4972	990.5392	1048.8413	1057.4827	1060.5403	1108.3815	1111.7121	1188.8561	1212.3627	1222.2919	1228.6306	1260.5106	1283.5536	1349.9504	1414.2594	1475.8316	1492.3248	1494.4723	1514.4949	1629.6895	3023.923	3032.9944	3044.5633	3086.9411	3094.5692	3106.871	3112.2432	3120.4326	3211.9532	3241.0218
CC12CC(C1)C=C2	C[C@@]12C[C@@H](C1)C=C2	
InChI=1S/C7H10/c1-7-3-2-6(4-7)5-7/h2-3,6H,4-5H2,1H3	InChI=1S/C7H10/c1-7-3-2-6(4-7)5-7/h2-3,6H,4-5H2,1H3/t6-,7+
