18
gdb 4067	7.43925	0.97485	0.89306	0.8978	73.79	-0.2197	0.0058	0.2255	1289.8062	0.152306	-381.050515	-381.04192	-381.040976	-381.083748	31.231	
C	-0.0220323828	 1.4928337837	-0.1095885059	-0.380092
C	 0.0867797045	-0.0293864431	-0.0662888525	-0.121911
N	 0.7446504422	-0.4857442977	 1.1438531189	-0.078003
C	 2.2098030783	-0.2494233756	 1.2712317582	-0.261594
C	 2.3393665009	-1.6820756664	 1.7318916191	 0.412397
C	 0.9086537596	-1.9515516214	 1.3244847129	-0.263032
N	 3.2920394209	-2.3074744173	 2.2752212629	-0.231632
O	 2.92845562	-3.6408283151	 2.5429662928	-0.393827
H	 0.9682929412	 1.9607617701	-0.108989271	 0.119337
H	-0.5409637913	 1.8169036469	-1.0166643879	 0.114486
H	-0.570987041	 1.863302212	 0.7607569944	 0.12703
H	-0.9163117465	-0.4725841101	-0.0836788562	 0.104823
H	 0.60856221	-0.3916195987	-0.9759216281	 0.072897
H	 2.7169584745	-0.0666124135	 0.3089009824	 0.106639
H	 2.4939886437	 0.5388901468	 1.9755738736	 0.126005
H	 0.2500386379	-2.4046578549	 2.0728322098	 0.128741
H	 0.8401704925	-2.5360237288	 0.3920960646	 0.10974
H	 3.7225362354	-3.986799207	 2.9641757423	 0.307996
65.9187	105.4522	171.6898	223.8602	242.6046	274.339	338.5989	382.5514	434.0298	472.943	525.1952	677.7893	775.41	811.9689	906.7071	940.3186	965.0524	984.4128	1026.9022	1061.8338	1099.434	1117.9594	1148.5372	1175.7099	1201.2504	1224.288	1270.7915	1308.8929	1328.2377	1393.1421	1411.0108	1414.0744	1477.8115	1487.8303	1491.5473	1500.6615	1515.0482	1813.1281	2891.7166	2963.2229	2974.3225	3038.094	3045.5325	3064.2727	3066.1968	3105.5507	3119.795	3819.0798
CCN1CC(C1)=NO	CCN1CC(=NO)C1	
InChI=1S/C5H10N2O/c1-2-7-3-5(4-7)6-8/h8H,2-4H2,1H3	InChI=1S/C5H10N2O/c1-2-7-3-5(4-7)6-8/h8H,2-4H2,1H3
