14
gdb 2201	4.30733	2.37859	1.67745	2.586	55.65	-0.244	0.0238	0.2678	737.3319	0.112938	-361.726166	-361.718687	-361.717743	-361.757895	25.479	
C	-0.0291494156	 1.410590768	-0.0604562461	-0.343708
N	-0.01081328	-0.0278626532	-0.0037599583	-0.078481
C	-1.084179968	-1.0287196247	-0.052748524	-0.185136
C	 0.0232357994	-2.1174036206	-0.0066836896	-0.005135
O	 0.0416905611	-2.9618950742	-1.1292691643	-0.431827
C	 1.0196447488	-0.9277994155	-0.0477184638	 0.373741
O	 2.2164061673	-0.8077277964	-0.1315123292	-0.382133
H	 1.0071151779	 1.7567498899	-0.0532860687	 0.16275
H	-0.5155674625	 1.7705717109	-0.9756065654	 0.131786
H	-0.552909602	 1.8387333354	 0.8024744942	 0.13079
H	-1.7700007347	-0.996531455	 0.8001646094	 0.110492
H	-1.6460226335	-1.0350877329	-0.9923504519	 0.12277
H	 0.0501641917	-2.6782666524	 0.9375307602	 0.093572
H	 0.9604772603	-3.2096972293	-1.2843485825	 0.300518
103.0084	131.8501	156.9024	193.4827	244.3407	297.0471	412.3982	521.0737	634.4867	771.662	809.0652	877.0346	975.418	1013.3968	1081.0639	1123.6299	1160.0064	1181.4607	1187.1428	1256.8356	1288.0078	1326.5787	1403.6135	1420.8279	1449.07	1481.9709	1507.4857	1528.3687	1875.0837	3013.6783	3015.823	3039.6274	3068.2206	3092.2726	3130.4959	3801.7691
CN1CC(O)C1=O	CN1C[C@@H](O)C1=O	
InChI=1S/C4H7NO2/c1-5-2-3(6)4(5)7/h3,6H,2H2,1H3	InChI=1S/C4H7NO2/c1-5-2-3(6)4(5)7/h3,6H,2H2,1H3/t3-/m1/s1
