13
gdb 2662	11.93188	0.84608	0.83282	2.0238	59.76	-0.2539	-0.0331	0.2209	1294.1033	0.098908	-344.423318	-344.415038	-344.414094	-344.457951	26.652	
O	 0.0915946725	 1.1852901559	-0.807250153	-0.399426
C	 0.0510986154	 0.1249423024	 0.1363919921	-0.193395
C	-1.2787340309	-0.4628033944	 0.3007584258	 0.082943
C	-2.3961715078	-0.8899237029	 0.4445337157	 0.013995
C	-3.7187880048	-1.4791043645	 0.5865752051	-0.41363
C	-3.7995938865	-2.8828573627	-0.0212996698	 0.171436
O	-4.4268744142	-3.7817484344	 0.4671821698	-0.228142
H	-0.5767620765	 1.828393521	-0.5485740738	 0.288312
H	 0.7508803797	-0.6312201517	-0.2361948614	 0.144228
H	 0.428111828	 0.4461223843	 1.1205235166	 0.121696
H	-4.0438601319	-1.5376471195	 1.6304158902	 0.156133
H	-4.4614838934	-0.8641762158	 0.054963951	 0.158131
H	-3.2351448895	-3.0011695777	-0.9712425884	 0.097719
20.6342	53.8768	118.9962	131.0204	246.5159	332.8772	334.2539	453.2826	483.7868	557.4119	719.5827	809.5618	984.5063	1032.3868	1039.7152	1049.9095	1155.8736	1211.4769	1215.786	1289.7095	1361.6175	1412.9325	1417.9896	1439.055	1490.2165	1842.2337	2361.2347	2905.556	2978.8136	3002.8107	3064.9178	3080.5992	3816.4782
OCC#CCC=O	OCC#CCC=O	
InChI=1S/C5H6O2/c6-4-2-1-3-5-7/h4,7H,2,5H2	InChI=1S/C5H6O2/c6-4-2-1-3-5-7/h4,7H,2,5H2
