14
gdb 4875	4.78017	1.39552	1.12212	2.3368	60.46	-0.2006	0.0297	0.2303	1000.4317	0.10835	-415.885677	-415.878111	-415.877167	-415.917935	27.516	
O	 0.0871603914	 1.3501316398	-0.3190969064	-0.420411
C	-0.0186479547	 0.059089439	 0.2777461313	-0.173788
C	-1.3844295909	-0.5255386347	 0.1230260721	 0.2933
N	-1.6894375232	-1.7576822331	-0.201311461	-0.28921
C	-3.0706212881	-1.8274001831	-0.1947306534	-0.235611
C	-3.5886804981	-0.6008775075	 0.1314383978	 0.357849
O	-4.8345402038	-0.0891680223	 0.2671287483	-0.433649
N	-2.5180034634	 0.2257103379	 0.3397902314	-0.31763
H	-0.0638518081	 1.2417485968	-1.2644944808	 0.286375
H	 0.7050950341	-0.6604893931	-0.1247474359	 0.123742
H	 0.2268979902	 0.2199455955	 1.3344502668	 0.122347
H	-3.6001503769	-2.7380838201	-0.4285800233	 0.098933
H	-5.4718481145	-0.783122942	 0.0717664533	 0.312006
H	-2.5543735739	 1.210912137	 0.5439362798	 0.275746
57.8858	142.0017	234.1707	250.8992	325.0292	385.5225	407.7809	480.8987	532.9689	644.2231	674.495	704.3302	761.8494	771.2302	967.643	1000.1416	1037.981	1065.933	1143.8334	1174.643	1192.8378	1241.1994	1292.318	1358.7227	1414.4678	1440.2393	1496.9029	1511.2354	1565.2995	1635.9784	3025.4876	3065.0737	3246.2976	3663.2688	3804.0459	3843.3905
OCC1=NC=C(O)N1	OCc1ncc(O)[nH]1	
InChI=1S/C4H6N2O2/c7-2-3-5-1-4(8)6-3/h1,7-8H,2H2,(H,5,6)	InChI=1S/C4H6N2O2/c7-2-3-5-1-4(8)6-3/h1,7-8H,2H2,(H,5,6)
