14
gdb 4645	6.4611	1.33011	1.11068	4.1539	74.35	-0.2101	0.0084	0.2185	1026.7356	0.107373	-341.602777	-341.595221	-341.594277	-341.634701	27.75	
C	-0.0407195673	 1.4857461448	 0.0200164971	-0.508107
C	-0.0006078617	-0.0049814177	-0.0271554973	 0.338071
N	-0.0321466706	-0.7427234969	-1.1109059959	-0.338616
C	 0.0266241112	-2.0607254026	-0.6782358577	 0.139883
C	 0.0942064703	-2.0992816955	 0.6960896038	-0.195086
N	 0.0762527052	-0.7870683569	 1.0972002271	-0.266959
C	 0.0150151738	-3.1629264744	-1.5668669732	 0.236686
C	 0.0057401394	-4.1070699988	-2.3139214393	-0.424107
H	 0.8572132175	 1.9029948873	 0.4900642794	 0.13368
H	-0.1030761035	 1.8636971172	-1.0008678634	 0.163599
H	-0.9089262989	 1.8526318135	 0.5794003186	 0.133584
H	 0.1512330459	-2.9191917165	 1.3916708741	 0.137355
H	 0.113167521	-0.4615017271	 2.048887277	 0.266549
H	-0.0029007422	-4.9343568763	-2.9787219802	 0.183468
77.184	145.7596	148.7532	266.3872	337.748	464.6646	536.4563	541.6353	549.6814	557.6979	657.5827	667.2932	715.9418	718.1433	761.1709	966.3084	996.0787	1047.7598	1062.7472	1115.5296	1231.9708	1275.0857	1365.0418	1412.9619	1428.6745	1482.8302	1493.2982	1560.7976	1595.0204	2236.4178	3031.7719	3081.7928	3152.437	3282.47	3506.671	3659.5352
CC1=NC(=CN1)C#C	Cc1nc(c[nH]1)C#C	
InChI=1S/C6H6N2/c1-3-6-4-7-5(2)8-6/h1,4H,2H3,(H,7,8)	InChI=1S/C6H6N2/c1-3-6-4-7-5(2)8-6/h1,4H,2H3,(H,7,8)
