15
gdb 2312	7.31097	1.3971	1.27631	4.6702	61.94	-0.2641	0.0376	0.3017	926.7937	0.125251	-304.691526	-304.684063	-304.683119	-304.723547	26.22	
C	 0.0307381952	 1.5463928271	-0.1908635613	-0.396263
C	-0.0033823493	 0.0566983408	 0.0560003176	-0.005224
N	 1.2730146996	-0.6734929835	-0.0073010588	-0.325258
C	 0.5454976167	-0.6198859937	 1.2641292077	-0.008883
C	 1.2251779795	 0.1258077322	 2.4039587564	-0.339473
C	 2.1174929022	-0.7478456697	 3.1668083827	 0.259323
N	 2.8066865666	-1.4551124313	 3.7666536194	-0.304858
H	 0.9318283942	 2.0045073275	 0.2227216547	 0.127503
H	 0.023948492	 1.7510172132	-1.2664254819	 0.128931
H	-0.8448589449	 2.0356104015	 0.2493637429	 0.120739
H	-0.8715724608	-0.4399247734	-0.3770400504	 0.090518
H	 1.1666757209	-1.5800238034	-0.452555184	 0.239297
H	 0.0267996381	-1.5199057063	 1.5888268199	 0.102926
H	 1.8091126074	 0.9613786323	 2.0098495835	 0.159867
H	 0.4755030925	 0.5390091167	 3.0892858616	 0.150855
54.9171	123.1569	168.9179	220.8375	334.5666	386.3217	429.4054	483.4567	542.1198	773.9945	840.7992	865.8726	925.8495	956.5237	984.3619	1028.2238	1037.7294	1089.8453	1153.2109	1196.5079	1247.2274	1268.0878	1274.9079	1315.0167	1401.4568	1423.9783	1451.8257	1469.4088	1489.6222	1503.8722	2363.2368	3039.0922	3047.5685	3100.0887	3100.9062	3107.1089	3126.509	3133.1387	3519.1468
CC1NC1CC#N	C[C@H]1N[C@H]1CC#N	
InChI=1S/C5H8N2/c1-4-5(7-4)2-3-6/h4-5,7H,2H2,1H3	InChI=1S/C5H8N2/c1-4-5(7-4)2-3-6/h4-5,7H,2H2,1H3/t4-,5+/m1/s1
