10
gdb 729	9.75353	3.57369	2.65866	4.0664	44.67	-0.2707	-0.0356	0.2351	466.4947	0.073075	-301.335636	-301.330443	-301.329499	-301.364219	17.83	
C	 0.0240187259	 1.5117997864	 0.0318868439	-0.488232
C	-0.0554278372	 0.0279227629	 0.0448828567	 0.402682
C	-1.0455197498	-0.8603060726	-0.2477457968	-0.19627
N	-0.5313611992	-2.1190781907	-0.0511470672	-0.106201
N	 0.6629695945	-2.0597057753	 0.3281311276	-0.008944
O	 1.0235417057	-0.6653565519	 0.4069156045	-0.209684
H	 0.8052671075	 1.8520994296	-0.6548954101	 0.159775
H	-0.9293797505	 1.9394444805	-0.2834088309	 0.148492
H	 0.2685372996	 1.8960871465	 1.0271153781	 0.159773
H	-2.0579691866	-0.6978157854	-0.5748424658	 0.138608
118.3142	260.5108	316.3926	627.6257	662.8192	667.1224	704.1289	818.746	987.6237	1012.4332	1051.1257	1067.4913	1126.7344	1249.2196	1366.9608	1415.5786	1459.6143	1474.7996	1488.6626	1613.7362	3047.2332	3106.857	3140.6737	3291.6204
CC1=CN=NO1	Cc1cnno1	
InChI=1S/C3H4N2O/c1-3-2-4-5-6-3/h2H,1H3	InChI=1S/C3H4N2O/c1-3-2-4-5-6-3/h2H,1H3
