10
gdb 1586	4.84199	2.24324	1.53301	0.844	50.95	-0.2544	-0.0938	0.1606	719.4434	0.064803	-359.317823	-359.310674	-359.30973	-359.349183	24.719	
N	-0.0498059246	 1.3246889551	 0.0082888271	-0.532386
C	 0.088310533	-0.0184914291	 0.0009154402	 0.34461
O	 1.1296728865	-0.6406752188	-0.0114818404	-0.342993
C	-1.2839808879	-0.7305309746	 0.0102462805	 0.118719
O	-2.3201036254	-0.0990775082	 0.023558635	-0.294356
C	-1.2327406049	-2.1707888503	 0.0020758213	 0.312874
C	-1.2313186992	-3.3741078024	-0.0044347809	-0.382936
H	 0.7662309715	 1.9123210227	 0.0039465739	 0.272564
H	-0.9751143376	 1.7222828448	 0.0189567931	 0.28154
H	-1.2194430014	-4.4373306892	-0.0106848498	 0.222365
65.5607	141.8435	229.0656	290.6898	319.8159	415.4293	472.3542	504.6974	636.4809	651.07	652.76	709.9258	724.4733	840.1356	1085.1516	1130.8783	1366.1445	1588.8784	1756.0699	1813.5173	2218.6208	3493.719	3598.3613	3739.6522
NC(=O)C(=O)C#C	NC(=O)C(=O)C#C	
InChI=1S/C4H3NO2/c1-2-3(6)4(5)7/h1H,(H2,5,7)	InChI=1S/C4H3NO2/c1-2-3(6)4(5)7/h1H,(H2,5,7)
