17
gdb 1468	6.68658	1.27117	1.15043	1.7586	66.12	-0.259	0.0538	0.3128	1022.2116	0.145683	-309.684327	-309.675583	-309.674639	-309.717268	31.13	
C	-0.0603182752	 1.5788455825	 0.0570932001	-0.388824
C	-0.0380934279	 0.0484825443	 0.0069304699	 0.039384
C	-1.4519901295	-0.533966577	 0.0158798439	-0.079502
O	-2.090830556	-0.1337356454	 1.2178506435	-0.423192
C	 0.729140605	-0.4828376792	-1.2271673103	-0.363349
C	 2.1382595735	-0.1101732387	-1.2417317297	 0.299869
C	 3.300263445	 0.197921604	-1.2351549671	-0.44022
H	 0.9547180362	 1.9825986344	 0.0950884942	 0.12595
H	-0.5534669044	 1.9894992439	-0.8331206232	 0.103982
H	-0.6109867739	 1.9213931738	 0.9353514255	 0.133569
H	 0.4697328346	-0.325175955	 0.9047598784	 0.095621
H	-2.0039138862	-0.1723816002	-0.8688035613	 0.082376
H	-1.4002427389	-1.6328524947	-0.0563688795	 0.082195
H	-2.9984646988	-0.4497257303	 1.1978740351	 0.28748
H	 0.6491954549	-1.5774452288	-1.2637546439	 0.125347
H	 0.2461108112	-0.1110205077	-2.1417439533	 0.126105
H	 4.3273532105	 0.4665596239	-1.2386232824	 0.19321
71.8695	113.4691	138.5781	236.5787	240.5219	261.8065	327.245	347.2232	413.0661	420.0922	559.4826	613.9659	634.3474	837.6982	889.3628	919.5929	938.4525	982.6307	1079.4986	1094.2981	1126.0434	1169.0239	1223.6308	1254.6353	1277.8324	1307.8887	1359.9983	1380.8948	1405.1271	1461.2739	1471.0896	1495.743	1504.2044	1520.8861	2237.8143	2950.7288	2979.7357	3007.0453	3027.4775	3033.5636	3048.544	3104.6224	3137.0866	3507.0212	3835.6322
CC(CO)CC#C	C[C@@H](CO)CC#C	
InChI=1S/C6H10O/c1-3-4-6(2)5-7/h1,6-7H,4-5H2,2H3	InChI=1S/C6H10O/c1-3-4-6(2)5-7/h1,6-7H,4-5H2,2H3/t6-/m1/s1
