14
gdb 2758	4.49388	2.30738	1.73147	3.8063	57.92	-0.2486	0.0121	0.2607	718.483	0.115451	-320.735225	-320.728399	-320.727454	-320.766088	24.7	
N	 0.2130666276	 1.4509758635	-0.0579167231	-0.496291
C	 0.0947092346	 0.0195693013	 0.0302384763	 0.021351
C	 0.1134903385	-0.5084176069	 1.486597417	-0.171128
N	-1.3602019763	-0.6552523614	 1.4388953763	-0.304147
C	-1.3532658971	-0.6380124732	-0.0365504207	-0.160056
C	-2.40847997	 0.1490602421	-0.666966318	 0.293837
N	-3.2032716119	 0.8042928497	-1.1923209365	-0.325999
H	 0.0236857055	 1.7753843253	-1.0015165795	 0.242821
H	-0.4631545063	 1.9045436985	 0.5502997466	 0.246792
H	 0.8053210265	-0.4426837622	-0.6566569223	 0.097418
H	 0.6689781649	-1.4504546451	 1.5857488928	 0.10143
H	 0.4713694448	 0.1993911955	 2.2404254719	 0.118708
H	-1.7518898811	-1.4881460469	 1.8633421191	 0.229942
H	-1.3165976598	-1.6284567204	-0.5120102399	 0.105322
96.354	135.6881	227.6622	310.5042	363.3479	412.0258	555.3281	557.8667	680.7456	782.944	832.9026	888.7804	939.362	977.5638	994.2541	1037.0168	1073.8392	1113.5748	1141.4553	1192.9968	1255.5988	1275.3903	1317.438	1358.6287	1390.9468	1427.8805	1519.7532	1663.9634	2350.5214	3000.0855	3012.6602	3080.7205	3101.2276	3494.1368	3540.9289	3573.2562
NC1CNC1C#N	N[C@H]1CN[C@H]1C#N	
InChI=1S/C4H7N3/c5-1-4-3(6)2-7-4/h3-4,7H,2,6H2	InChI=1S/C4H7N3/c5-1-4-3(6)2-7-4/h3-4,7H,2,6H2/t3-,4-/m0/s1
