17
gdb 4775	5.49472	1.20267	1.06609	1.9	71.86	-0.1797	0.0481	0.2278	1123.8479	0.142518	-363.90002	-363.891654	-363.89071	-363.933199	30.78	
C	 0.1617258453	 1.5143115493	 0.2191559899	-0.363009
C	-0.1019492771	 0.0301716229	-0.0966747897	-0.298931
C	 0.5943805099	-0.4609385119	-1.3269640441	 0.343991
C	 0.1034909999	-0.7488119491	-2.5865459246	-0.382091
C	 1.2057352866	-1.1466762894	-3.3942799212	 0.330472
O	 1.1903771504	-1.5259675697	-4.7074928942	-0.450708
C	 2.3407026641	-1.0954169621	-2.6208949383	-0.182892
N	 1.946220548	-0.6740611026	-1.3644618681	-0.299999
H	 1.2282328364	 1.7041885132	 0.379187251	 0.109804
H	-0.1650068375	 2.1499828804	-0.6090494681	 0.125326
H	-0.3727103352	 1.8235983484	 1.1232339066	 0.110972
H	 0.1893849528	-0.5799797264	 0.7695677925	 0.100825
H	-1.1771484337	-0.1274109236	-0.2287935189	 0.11338
H	-0.9315196622	-0.6814359191	-2.8900473605	 0.080662
H	 0.2835421549	-1.4801934461	-5.022272168	 0.293933
H	 3.3659742887	-1.3248326082	-2.8544950126	 0.113383
H	 2.5667907086	-0.5527789962	-0.5839966017	 0.254883
38.6226	132.5287	200.2528	200.9288	287.4682	303.21	354.2412	435.814	458.4218	586.4735	628.7376	684.2325	692.4186	723.8166	762.893	781.9811	945.2372	993.5954	1010.3425	1059.1748	1081.7395	1129.1736	1171.392	1187.8294	1270.1964	1325.5727	1328.338	1355.9115	1407.6097	1463.0244	1473.5248	1487.9021	1495.6359	1504.6042	1553.6281	1661.6705	3010.7136	3034.1772	3072.7582	3103.3517	3113.938	3229.1473	3281.6342	3686.4541	3848.0481
CCC1=CC(O)=CN1	CCc1cc(O)c[nH]1	
InChI=1S/C6H9NO/c1-2-5-3-6(8)4-7-5/h3-4,7-8H,2H2,1H3	InChI=1S/C6H9NO/c1-2-5-3-6(8)4-7-5/h3-4,7-8H,2H2,1H3
