16
gdb 623	6.71147	2.48794	2.11039	0.9946	57.42	-0.2416	0.093	0.3346	657.4178	0.141831	-271.608843	-271.601738	-271.600794	-271.639467	25.184	
C	 0.2756249724	 1.2313181903	 0.2095623415	-0.229264
O	-0.3780408871	 0.1338877001	-0.3929840953	-0.233742
C	 0.4068491342	-0.5106526814	-1.3452917162	 0.132099
C	 1.432410277	-1.5252635118	-0.8934815178	-0.323088
C	 0.1482109267	-1.9697554012	-1.5718317609	-0.027193
C	-0.9196625626	-2.6976682688	-0.7858147161	-0.395443
H	 1.1937485053	 0.9223846248	 0.7298736112	 0.107679
H	 0.5419781756	 2.0009316251	-0.531195637	 0.104146
H	-0.4195814996	 1.6639770623	 0.933058795	 0.124889
H	 0.6539890746	 0.1109063777	-2.2082459702	 0.078417
H	 2.3740126851	-1.6029821836	-1.4263320263	 0.10721
H	 1.4994074029	-1.6979898083	 0.1760774656	 0.114471
H	 0.252452749	-2.2967258448	-2.603261599	 0.083748
H	-1.0210095368	-2.2750768965	 0.2161844311	 0.127936
H	-1.8949560506	-2.6169351268	-1.2779975109	 0.116756
H	-0.678479546	-3.7618283372	-0.6905175846	 0.111378
106.7353	169.2218	181.6122	207.9369	285.1926	364.5346	465.6796	564.4865	751.0382	826.0499	865.8442	921.0869	972.4071	1018.8631	1054.4077	1099.8477	1114.4789	1148.0469	1169.96	1184.7095	1195.3656	1227.1159	1262.1611	1373.2941	1408.5058	1420.0189	1472.7753	1484.4604	1490.862	1494.824	1503.5978	1510.3836	2980.668	3031.1667	3034.7138	3077.5454	3091.5451	3115.6873	3122.2913	3128.4177	3142.6829	3216.2481
COC1CC1C	CO[C@H]1C[C@H]1C	
InChI=1S/C5H10O/c1-4-3-5(4)6-2/h4-5H,3H2,1-2H3	InChI=1S/C5H10O/c1-4-3-5(4)6-2/h4-5H,3H2,1-2H3/t4-,5+/m1/s1
