17
gdb 3437	4.38224	2.85672	2.08512	0.2365	68.38	-0.2244	0.0228	0.2472	682.9414	0.150041	-272.582834	-272.576579	-272.575635	-272.612484	24.991	
C	-0.1546338937	 1.58510755	 0.0186297606	-0.389669
C	 0.0341728344	 0.060630519	 0.0065228378	-0.023843
C	 0.8380732317	-0.4611685601	-1.1727414319	-0.083969
C	 1.8168888677	-1.2886932469	-0.8002385238	-0.081508
C	 1.8953867178	-1.4158789991	 0.6848191806	-0.075918
C	 2.2429580726	-0.1291819526	 1.4102621921	-0.277839
C	 0.7965705703	-0.5077162504	 1.2106275245	-0.042224
H	 0.8080114866	 2.1038543186	 0.0605396581	 0.116738
H	-0.6786242182	 1.9228458632	-0.8819983774	 0.109818
H	-0.7452700159	 1.8991300325	 0.8853414729	 0.112691
H	-0.969142931	-0.3920086894	-0.0187953544	 0.078014
H	 0.6246320339	-0.158677077	-2.1926358368	 0.086968
H	 2.5080711212	-1.7879874823	-1.4703618998	 0.091261
H	 2.1420513764	-2.366162484	 1.145533921	 0.082684
H	 2.6300127017	-0.2105279615	 2.4209982034	 0.106123
H	 2.6736940416	 0.6763390505	 0.8247516721	 0.110568
H	 0.2291228729	-0.7811194805	 2.0927010311	 0.080102
173.1881	222.6263	253.9739	379.3016	434.4129	551.0335	667.937	744.9971	759.3241	784.2983	810.0144	866.5568	900.2864	937.2106	974.2189	980.2337	1028.3743	1045.8075	1065.8297	1077.4448	1098.4852	1116.1393	1118.3535	1149.2807	1201.1965	1301.3714	1310.6033	1332.8475	1371.9274	1384.2341	1410.7674	1476.773	1497.056	1498.0795	1668.1737	2978.7765	3031.5785	3097.1891	3106.6837	3123.1448	3164.1298	3173.9456	3177.7778	3203.2578	3211.4647
CC1C=CC2CC12	C[C@H]1C=C[C@H]2C[C@@H]12	
InChI=1S/C7H10/c1-5-2-3-6-4-7(5)6/h2-3,5-7H,4H2,1H3	InChI=1S/C7H10/c1-5-2-3-6-4-7(5)6/h2-3,5-7H,4H2,1H3/t5-,6-,7-/m0/s1
