17
gdb 4161	2.61063	1.80707	1.13007	2.0261	68.39	-0.2484	-0.0033	0.2451	1036.252	0.14151	-400.94272	-400.934458	-400.933514	-400.975663	30.357	
O	-0.3236523935	 1.5548795468	 0.1069936879	-0.422097
C	-0.0520379164	 0.1845740658	-0.0983993321	-0.068622
C	-1.3279423177	-0.6540644186	-0.0256280625	-0.088685
C	-1.2116831278	-2.2134312245	 0.0781569476	-0.251896
C	-2.0824361065	-2.1949037706	 1.3776976202	-0.321043
C	-1.9870346846	-0.6852263826	 1.3394998387	 0.421205
N	-2.1798715223	 0.2798239516	 2.1385223621	-0.24865
O	-2.6979317455	-0.1575566814	 3.3696287797	-0.391493
H	-0.8042936306	 1.6190728053	 0.9442122114	 0.290738
H	 0.407219283	 0.0953473791	-1.0893288656	 0.106117
H	 0.6744845903	-0.2013013476	 0.6370114884	 0.079454
H	-2.0188166371	-0.3310297497	-0.8120720708	 0.100831
H	-1.6176170676	-2.7778801531	-0.7620286723	 0.11064
H	-0.1862606509	-2.5435304792	 0.2619610267	 0.113515
H	-3.1032837869	-2.5633009225	 1.2358971169	 0.130505
H	-1.6696586836	-2.6722854613	 2.2699084575	 0.13163
H	-2.8045770823	 0.6680056823	 3.8545168863	 0.307853
74.8994	120.0992	169.9053	202.7319	245.951	341.578	394.5799	429.5062	491.7198	515.0896	585.9418	689.4822	757.7587	815.4687	896.0585	931.1139	966.0408	994.2128	1037.3873	1074.4184	1087.0107	1131.7763	1175.7187	1200.7492	1214.9163	1235.6564	1263.355	1273.1367	1327.2137	1386.805	1406.8328	1445.8376	1458.2895	1490.3585	1508.6774	1776.5213	2958.0457	3048.9513	3058.6174	3065.2252	3073.9642	3106.2085	3133.5076	3737.6253	3816.8961
OCC1CCC1=NO	OC[C@H]1CCC1=NO	
InChI=1S/C5H9NO2/c7-3-4-1-2-5(4)6-8/h4,7-8H,1-3H2	InChI=1S/C5H9NO2/c7-3-4-1-2-5(4)6-8/h4,7-8H,1-3H2/t4-/m1/s1
