21
gdb 2358	4.61986	1.78374	1.38999	0.0088	74.52	-0.2829	0.0856	0.3685	946.9227	0.194943	-274.98588	-274.977749	-274.976805	-275.017903	30.648	
C	 0.0535901658	 1.5064431311	 0.0914155724	-0.388749
C	-0.0771706657	-0.0202267953	 0.0039545824	 0.019687
C	-1.5503147785	-0.4485270138	-0.0393217735	-0.388749
C	 0.6930984774	-0.5720386197	-1.1943578274	 0.092026
C	 2.2436999156	-0.4379077122	-1.2342041933	-0.235052
C	 2.3145081016	-1.8580161759	-1.8563226821	-0.215355
C	 0.8708023856	-2.1113032162	-1.3461134116	-0.235052
H	 1.1019324093	 1.8168668926	 0.1480171191	 0.113669
H	-0.3890017625	 1.9869749964	-0.789602793	 0.109173
H	-0.4601989268	 1.8987491607	 0.9754168499	 0.107338
H	 0.3744124235	-0.4513471727	 0.9105880636	 0.062336
H	-2.0501270828	-0.0377398431	-0.9250041245	 0.109173
H	-1.6505635419	-1.5380993725	-0.0763445894	 0.113669
H	-2.0933477946	-0.0918664345	 0.8422960329	 0.107338
H	 0.265362061	-0.1593319939	-2.1181844122	 0.0606
H	 2.6748436236	 0.3913220134	-1.8006558491	 0.092502
H	 2.6633957376	-0.4206838887	-0.2222025801	 0.095041
H	 2.3562498612	-1.8192058347	-2.948755494	 0.099644
H	 3.102745377	-2.5281908746	-1.5051624971	 0.093219
H	 0.8706610603	-2.6058102604	-0.3683346681	 0.095041
H	 0.1819401869	-2.647224344	-2.0038609953	 0.092502
95.5371	133.4336	178.6531	228.2683	248.9012	311.91	339.5611	430.2303	459.6641	622.6465	749.9984	787.4573	874.1218	897.4384	928.2791	935.7038	949.233	960.0866	971.9607	1014.3376	1031.0573	1092.7103	1145.896	1189.2356	1205.7268	1210.1201	1249.6814	1257.9902	1263.483	1279.1864	1293.5044	1324.9765	1352.5436	1394.1862	1399.2367	1421.0067	1478.9208	1486.3256	1487.7764	1492.1547	1504.7613	1510.3228	1511.5354	2984.8537	3013.7167	3022.2107	3027.1278	3040.4793	3045.1799	3056.1636	3086.442	3091.9943	3092.9522	3096.7169	3098.551	3100.0773	3114.0539
CC(C)C1CCC1	CC(C)C1CCC1	
InChI=1S/C7H14/c1-6(2)7-4-3-5-7/h6-7H,3-5H2,1-2H3	InChI=1S/C7H14/c1-6(2)7-4-3-5-7/h6-7H,3-5H2,1-2H3
