15
gdb 1534	8.63777	1.19061	1.07073	4.7834	55.28	-0.2453	-0.011	0.2343	1065.3302	0.121404	-382.773457	-382.764788	-382.763844	-382.807335	28.328	
C	-0.1026345828	 1.3907143757	-0.0248036722	-0.225849
O	-0.0049362398	-0.0115384479	-0.1168233323	-0.208844
C	-1.224287363	-0.6543124866	 0.088083741	-0.16177
C	-1.0352649709	-2.1705285464	 0.0426275834	 0.357957
O	 0.0398736868	-2.7007993208	 0.1005878489	-0.255681
C	-2.3448291331	-2.9488485704	-0.0802358117	-0.176222
O	-2.1096405897	-4.3068080923	 0.1776852105	-0.393158
H	 0.8973619089	 1.7951839011	-0.1955001298	 0.136177
H	-0.7888802147	 1.8049742457	-0.7806373152	 0.104161
H	-0.4529422392	 1.7112417503	 0.9691868749	 0.106146
H	-1.6594321214	-0.4028418512	 1.0747671782	 0.109543
H	-1.9808202092	-0.3557712247	-0.6620408669	 0.098014
H	-3.0837294682	-2.5028761433	 0.6090944812	 0.102283
H	-2.7265907819	-2.7693924394	-1.1015231592	 0.113321
H	-2.9292191217	-4.7861853596	 0.0262767193	 0.293921
64.055	69.2262	96.0744	160.3603	228.2542	235.8408	281.2124	348.7684	409.1704	472.0098	688.9075	829.9513	899.4357	968.1527	1064.3123	1086.9884	1151.8445	1176.2803	1183.5218	1230.4919	1241.3633	1245.0133	1276.7161	1406.1089	1445.3119	1469.2804	1486.6988	1491.2304	1495.9023	1516.8628	1854.5078	2921.5701	2940.3323	2946.2712	2966.6061	2969.611	3013.684	3121.3859	3837.0484
COCC(=O)CO	COCC(=O)CO	
InChI=1S/C4H8O3/c1-7-3-4(6)2-5/h5H,2-3H2,1H3	InChI=1S/C4H8O3/c1-7-3-4(6)2-5/h5H,2-3H2,1H3
