16
gdb 2470	4.38149	2.64601	2.4594	1.4713	59.46	-0.2212	0.0711	0.2923	634.4419	0.138896	-325.754267	-325.748166	-325.747222	-325.783787	24.159	
O	-0.510919222	 1.2185411961	-0.8167897049	-0.424785
C	-0.0412003628	 0.0820526017	-0.0895710245	 0.081802
C	-1.2484425561	-0.8317364071	 0.1915674894	-0.220384
C	-1.2197002423	-1.8637068566	-0.9265554728	-0.017698
C	-1.0534022142	-1.3733053655	-2.3187360657	-0.246303
N	 0.1120011507	-1.880439885	-1.5695317195	-0.100659
C	 0.9040081997	-0.825364643	-0.9154466175	-0.175918
H	 0.2549479323	 1.7446618008	-1.0686488377	 0.281709
H	 0.4391592017	 0.4140898335	 0.8412077431	 0.070178
H	-1.1275906322	-1.3297541326	 1.1591633726	 0.104386
H	-2.1702868605	-0.245304165	 0.2276543799	 0.12098
H	-1.6787704625	-2.8311798742	-0.7432201111	 0.08564
H	-1.3520963583	-2.0064375985	-3.1497394092	 0.108424
H	-1.1367786746	-0.3050172236	-2.4892601492	 0.13204
H	 1.4756004799	-0.2537570357	-1.6558968601	 0.095796
H	 1.6224641812	-1.3181913153	-0.2494461128	 0.104793
176.0503	274.5285	306.2735	402.1172	411.565	419.2358	668.4694	737.4608	775.3232	826.6045	843.3984	878.2174	923.2989	967.4604	990.0608	1018.8975	1051.6256	1098.3335	1122.3888	1134.3607	1173.6269	1205.4644	1210.2485	1252.1283	1282.2846	1315.9422	1337.8979	1345.3573	1387.0247	1425.693	1474.1771	1484.0674	1503.4162	2998.7511	3029.6302	3055.4255	3071.3134	3104.8755	3113.9972	3145.181	3211.7581	3814.355
OC1CC2CN2C1	O[C@H]1C[C@H]2CN2C1	
InChI=1S/C5H9NO/c7-5-1-4-2-6(4)3-5/h4-5,7H,1-3H2	InChI=1S/C5H9NO/c7-5-1-4-2-6(4)3-5/h4-5,7H,1-3H2/t4-,5-,6?/m0/s1
