15
gdb 4023	2.36718	1.92292	1.22359	1.0923	68.54	-0.2437	-0.0383	0.2054	986.8855	0.115179	-399.717886	-399.708798	-399.707853	-399.7514	32.789	
C	 0.0850717217	 1.4707738827	-0.1865317539	-0.38281
C	 0.0192665815	-0.0371137179	 0.0538991417	 0.058363
O	 0.6205257092	-0.2845671514	 1.3108612425	-0.428315
C	-1.4236068313	-0.5419958682	 0.0004665397	 0.124032
N	-2.0773189147	-0.7806934296	-1.0834541936	-0.171315
O	-1.3114489995	-0.4950504232	-2.2142857088	-0.384272
C	-2.1112804697	-0.7926217666	 1.2228595478	 0.301439
C	-2.6530952668	-1.0017660486	 2.2773506997	-0.41734
H	 1.1267185529	 1.7988717593	-0.1364913621	 0.127184
H	-0.321980956	 1.7155457983	-1.169267927	 0.136098
H	-0.4825516097	 2.0005365415	 0.5834355835	 0.131038
H	 0.5636239469	-0.5495390894	-0.7519304856	 0.09992
H	 0.5132577114	-1.2163901416	 1.5277193709	 0.285234
H	-1.9050062288	-0.7445412582	-2.9309416345	 0.315892
H	-3.143686567	-1.1817372771	 3.2020848197	 0.204852
58.1037	144.2265	175.3932	213.4291	239.8571	268.1502	273.4284	362.4985	406.7721	447.1609	480.3149	559.5064	618.2552	625.3353	660.5763	669.6693	730.38	928.9641	1005.4091	1022.6785	1075.3324	1160.5825	1236.1804	1294.9051	1348.9381	1389.2767	1402.0953	1420.2249	1489.2496	1496.3375	1663.7932	2225.6532	3004.0645	3052.0949	3125.7325	3146.6662	3501.6758	3816.73	3818.2352
CC(O)C(=NO)C#C	C[C@@H](O)C(=NO)C#C	
InChI=1S/C5H7NO2/c1-3-5(6-8)4(2)7/h1,4,7-8H,2H3	InChI=1S/C5H7NO2/c1-3-5(6-8)4(2)7/h1,4,7-8H,2H3/t4-/m1/s1
