17
gdb 2000	5.94632	1.41037	1.30468	1.4179	60.9	-0.2585	0.0711	0.3296	959.9123	0.146603	-346.832253	-346.82418	-346.823235	-346.864816	28.804	
C	 0.0410882511	 1.5256049568	 0.0271738627	-0.402211
C	 0.0533139515	-0.0004328799	-0.0508868435	 0.137063
O	-1.2546912781	-0.538510342	 0.1480090306	-0.438149
C	 0.5189786352	-0.5119149492	-1.4160877126	-0.213246
C	 0.6379548961	-2.0155204214	-1.4539064208	 0.100381
C	 1.6611846681	-2.6987879854	-2.2523586625	-0.183144
O	 1.8081560724	-2.5711361941	-0.8372696201	-0.24331
H	 1.0451113703	 1.9368067278	-0.1209719801	 0.11651
H	-0.624752556	 1.9424555011	-0.7353934995	 0.122609
H	-0.3137836938	 1.8614444002	 1.008235276	 0.104637
H	 0.7422669057	-0.3968211672	 0.7117973806	 0.083354
H	-1.5343164955	-0.3202073427	 1.0421888413	 0.282541
H	-0.202612422	-0.1827677982	-2.1751161019	 0.105963
H	 1.4897568141	-0.0669321595	-1.6586066129	 0.099674
H	-0.2787154751	-2.5554423298	-1.2211696701	 0.107506
H	 1.4829764896	-3.7098874999	-2.6166137457	 0.112023
H	 2.3579231466	-2.1104772467	-2.8494421515	 0.107798
69.5701	92.4017	162.0462	241.4571	274.1627	312.2634	354.2053	424.1473	473.6394	510.2252	787.337	835.482	868.5265	905.541	942.0251	970.5946	1042.9271	1078.1817	1094.1689	1128.8286	1156.1003	1159.0017	1175.3356	1221.2906	1292.7779	1301.9217	1318.5779	1386.6735	1406.0509	1422.4675	1445.8518	1457.8258	1492.6773	1497.5703	1530.4092	2979.3954	3026.4612	3030.9252	3076.7434	3083.4437	3094.7435	3110.4835	3129.8108	3162.0973	3825.0318
CC(O)CC1CO1	C[C@@H](O)C[C@H]1CO1	
InChI=1S/C5H10O2/c1-4(6)2-5-3-7-5/h4-6H,2-3H2,1H3	InChI=1S/C5H10O2/c1-4(6)2-5-3-7-5/h4-6H,2-3H2,1H3/t4-,5+/m1/s1
