16
gdb 1273	5.72993	1.35817	1.16425	3.6552	58.98	-0.2385	0.0398	0.2783	1008.3742	0.13552	-362.945811	-362.937134	-362.93619	-362.980361	29.109	
C	-0.1149873236	 1.4724871732	-0.0035169501	-0.479937
C	-0.001204813	-0.0363370577	 0.1588948422	 0.4084
O	 0.8897690621	-0.5497602607	 0.8134227285	-0.377987
N	-0.9597880619	-0.760155432	-0.4879536314	-0.309219
C	-1.0340491792	-2.2057896343	-0.4229721051	-0.142977
C	-2.4241562047	-2.6612992054	-0.0057355653	-0.079873
O	-3.3381695048	-2.1422053468	-0.9668315482	-0.425427
H	 0.776779989	 1.8389308898	-0.5196327442	 0.15103
H	-1.0010147549	 1.7904032836	-0.5592777046	 0.109876
H	-0.1287257027	 1.9316245181	 0.9881017451	 0.149514
H	-1.7020228973	-0.293080661	-0.9820752065	 0.251076
H	-0.7933567848	-2.6468457244	-1.3994818518	 0.113171
H	-0.2822304964	-2.5359172938	 0.2968019085	 0.146533
H	-2.4560615927	-3.7609004569	 0.0255767372	 0.094166
H	-2.6501450488	-2.2818491508	 1.0016880206	 0.09913
H	-4.2334159661	-2.3213217908	-0.6661117348	 0.292525
35.1686	48.7082	104.8465	133.1018	253.3504	274.8443	321.965	423.4392	490.1873	526.2231	615.7807	645.4522	829.4077	908.9118	975.2066	1000.6484	1050.5305	1090.6943	1103.6048	1138.6071	1216.882	1253.3196	1269.7038	1310.7918	1390.8214	1399.4898	1453.7241	1471.2544	1485.6739	1486.1938	1514.9183	1536.8163	1777.3773	2983.6441	3011.2923	3031.654	3049.3773	3124.7683	3125.3916	3131.3109	3653.8562	3837.6713
CC(=O)NCCO	CC(=O)NCCO	
InChI=1S/C4H9NO2/c1-4(7)5-2-3-6/h6H,2-3H2,1H3,(H,5,7)	InChI=1S/C4H9NO2/c1-4(7)5-2-3-6/h6H,2-3H2,1H3,(H,5,7)
