13
gdb 3787	7.78489	2.08781	1.67481	4.112	55.35	-0.2148	0.0364	0.2512	713.2982	0.10471	-336.836792	-336.830311	-336.829366	-336.867258	22.815	
C	 0.1070753019	 1.3922253134	-0.0820659464	-0.342452
N	-0.177685246	-0.012298406	 0.1436337747	-0.3753
C	 0.5462844906	-0.7346609045	 1.0539784907	 0.474887
N	 0.6386150601	-2.0552698689	 1.0890103287	-0.357078
C	 1.4116477822	-2.267191374	 2.1928893864	 0.036858
N	 1.8097820574	-1.190959211	 2.8388488072	-0.23011
N	 1.2417575127	-0.1955878216	 2.0824055858	-0.264558
H	 1.1534258267	 1.5885424589	-0.3608159495	 0.126673
H	-0.5390303098	 1.7588505858	-0.8814826379	 0.143498
H	-0.1271313129	 1.9779328778	 0.814701355	 0.133236
H	-0.414899478	-0.5601000548	-0.6691591567	 0.261384
H	 1.6898506215	-3.2567006433	 2.5249388288	 0.120142
H	 1.3639064335	 0.7654275083	 2.3485612931	 0.272819
96.2087	158.3234	212.5523	313.2268	433.6698	451.5709	551.2377	677.0224	723.4844	757.8406	913.2446	976.7003	1024.7846	1082.3341	1105.1311	1155.5854	1173.8241	1233.4502	1301.4689	1322.8931	1376.0306	1462.39	1487.1357	1491.9908	1521.4688	1560.6602	1648.3025	2989.7295	3057.2035	3131.6525	3255.6008	3628.643	3686.9854
CNC1=NC=NN1	CNc1ncn[nH]1	
InChI=1S/C3H6N4/c1-4-3-5-2-6-7-3/h2H,1H3,(H2,4,5,6,7)	InChI=1S/C3H6N4/c1-4-3-5-2-6-7-3/h2H,1H3,(H2,4,5,6,7)
