10
gdb 513	28.31357	1.31903	1.27032	1.9151	59.6	-0.2442	-0.024	0.2202	858.0993	0.070848	-267.963366	-267.956622	-267.955678	-267.993506	22.78	
O	-0.0009129109	 1.4620364714	 0.0099252214	-0.406359
C	 0.0009071875	 0.0413882163	 0.0023629032	-0.242622
C	-1.3681323689	-0.4519739859	 0.0127809718	 0.444495
C	-2.4935962649	-0.8941749395	 0.0211189813	-0.289504
C	-3.7617281697	-1.3871942036	 0.0305777306	 0.302062
C	-4.8860074692	-1.827365359	 0.0390491816	-0.548165
H	 0.9177752565	 1.7500230092	 0.0032852031	 0.293771
H	 0.5124403619	-0.3561960379	-0.8898403224	 0.12641
H	 0.5293000495	-0.3656027359	 0.8803824182	 0.12641
H	-5.8759426218	-2.210939585	 0.0465183412	 0.193501
105.0145	139.2876	214.1991	262.8873	348.5302	485.6738	541.613	566.16	591.1459	613.4092	719.9462	1021.3659	1050.4393	1162.2054	1243.2686	1256.0987	1459.492	1496.6487	2184.819	2369.2036	2961.8747	2981.0045	3505.6065	3818.6249
OCC#CC#C	OCC#CC#C	
InChI=1S/C5H4O/c1-2-3-4-5-6/h1,6H,5H2	InChI=1S/C5H4O/c1-2-3-4-5-6/h1,6H,5H2
