11
gdb 906	5.9881	2.83597	1.92452	3.2038	55.61	-0.2413	-0.0317	0.2096	604.8294	0.081241	-339.459869	-339.454631	-339.453687	-339.488948	19.406	
N	-0.0692005827	 1.3131812263	 0.1441158485	-0.519327
C	-0.0254352037	 0.0486408295	-0.0231966056	 0.334172
C	-1.2395560188	-0.759901265	-0.0943285519	-0.158733
C	-1.147959107	-2.0795864221	-0.2703236635	 0.055534
O	 0.0567861636	-2.7201873105	-0.3892950296	-0.18902
C	 1.1569422422	-1.9247407877	-0.3166015409	 0.133387
N	 1.1955380837	-0.6683936526	-0.1526932299	-0.306696
H	 0.8862205907	 1.6771897472	 0.1642956694	 0.221788
H	-2.2034456803	-0.2771112168	-0.0030581852	 0.132362
H	-1.9735075051	-2.7752224692	-0.3378397329	 0.148141
H	 2.0584149574	-2.5218656991	-0.4211104583	 0.148392
126.4936	404.2298	438.6623	443.5992	525.8797	672.0607	748.1556	824.1328	848.5469	921.4655	928.5531	971.6575	974.1337	999.2816	1063.8381	1157.6877	1238.6424	1346.0983	1417.2297	1424.2913	1640.4081	1699.4428	1735.3234	3187.3174	3223.0504	3242.6061	3457.7477
N=C1C=COC=N1	[NH]C1=CCOC=N1	
InChI=1S/C4H4N2O/c5-4-1-2-7-3-6-4/h1-3,5H	InChI=1S/C4H5N2O/c5-4-1-2-7-3-6-4/h1,3,5H,2H2
