15
gdb 1421	5.84332	1.34764	1.17766	0.5858	59.36	-0.2545	-0.0412	0.2133	963.3698	0.121569	-345.674176	-345.665811	-345.664867	-345.70828	27.478	
C	-0.1144836445	 1.6085334875	-0.038265679	-0.410591
C	-0.012100966	 0.0752862227	-0.0238696435	-0.07348
C	 0.7419814907	-0.4425127606	 1.2286976851	-0.286694
C	 2.1998571297	-0.0344668958	 1.1944033562	 0.159073
O	 2.7390255863	 0.6638667323	 2.0120752985	-0.231807
C	-1.399602462	-0.5424835255	-0.0344695361	 0.159146
O	-1.7777266274	-1.3768731234	-0.8134879985	-0.241605
H	 0.8744370781	 2.070474941	 0.0279403843	 0.142137
H	-0.5940517108	 1.961338419	-0.9557682789	 0.134029
H	-0.7023950159	 1.9689090153	 0.8133837033	 0.130352
H	 0.4991400423	-0.2848113875	-0.9236883455	 0.103196
H	 0.2912261729	-0.0631954742	 2.1508535299	 0.126006
H	 0.7036714632	-1.5402951175	 1.2424304706	 0.132651
H	 2.7617238686	-0.433568259	 0.3178254196	 0.081209
H	-2.0701297951	-0.1593352643	 0.7717396541	 0.076376
43.5217	61.2703	73.1055	204.7594	217.2676	293.9941	334.2776	388.6094	482.8096	568.7479	790.6415	886.4714	924.457	946.287	985.9793	1015.5616	1121.2804	1146.1891	1159.6353	1225.1989	1261.3042	1330.6449	1353.1554	1409.6983	1424.5178	1429.6326	1464.9263	1494.8866	1499.346	1834.5013	1838.7693	2848.5975	2862.9243	3022.9355	3037.3392	3054.3555	3098.2421	3107.2872	3119.4801
CC(CC=O)C=O	C[C@@H](CC=O)C=O	
InChI=1S/C5H8O2/c1-5(4-7)2-3-6/h3-5H,2H2,1H3	InChI=1S/C5H8O2/c1-5(4-7)2-3-6/h3-5H,2H2,1H3/t5-/m0/s1
