14
gdb 2051	4.93725	2.70448	1.81524	3.1864	60.36	-0.2516	0.0079	0.2595	678.3845	0.114916	-324.592221	-324.585863	-324.584919	-324.62347	22.802	
N	-0.1273996031	 1.2923165217	-0.3450352909	-0.512036
C	-0.015032703	 0.0923552318	 0.0445316488	 0.389936
C	-1.2113933776	-0.8344977003	 0.0039806208	-0.332108
C	-1.1078818095	-1.9949592941	 0.9496631768	-0.066255
C	 0.0728344368	-2.4072698635	 1.3931167939	-0.078008
C	 1.3393078297	-1.7224702485	 0.9875997427	-0.110815
O	 1.1747230481	-0.3863669417	 0.5007781589	-0.252705
H	 0.7713149482	 1.7722410303	-0.2633290296	 0.216172
H	-2.0988537398	-0.2256667863	 0.1923304419	 0.146746
H	-1.3230915837	-1.2043390872	-1.0263154433	 0.142435
H	-2.0250494459	-2.4994349974	 1.2375618083	 0.102841
H	 0.1756011431	-3.264040853	 2.0518201645	 0.103015
H	 2.0262255961	-1.6411915627	 1.8379796638	 0.127549
H	 1.8629429106	-2.3063058191	 0.2146760634	 0.123235
46.882	68.8582	383.7208	431.777	477.343	534.2571	574.6612	675.744	767.3066	871.3046	901.673	937.6331	961.2837	978.5761	1000.3817	1033.5351	1074.2931	1140.0398	1202.0677	1215.0065	1256.9819	1306.0733	1341.422	1410.898	1433.2181	1461.3405	1504.5812	1742.028	1744.851	2986.8376	3004.3483	3052.3357	3099.3615	3168.0982	3189.9015	3463.7933
N=C1CC=CCO1	[NH][C]1CC=CCO1	
InChI=1S/C5H7NO/c6-5-3-1-2-4-7-5/h1-2,6H,3-4H2	InChI=1S/C5H7NO/c6-5-3-1-2-4-7-5/h1-2,6H,3-4H2
