16
gdb 3059	10.54475	1.16543	1.10973	2.8404	65.74	-0.2461	0.0253	0.2714	1080.8004	0.135256	-325.752207	-325.744458	-325.743513	-325.7847	27.016	
C	 0.242099566	 1.2387169876	 0.1844011411	-0.314032
N	-0.2885059581	-0.005389789	-0.3315691536	-0.202948
C	 0.4906728158	-0.733361036	-0.9962992465	 0.129612
O	 0.0620354597	-1.9117421926	-1.5055083271	-0.207299
C	 1.0050606282	-2.618741935	-2.2738694531	 0.124796
C	 2.0319141733	-3.4653252855	-1.5704054817	-0.287057
C	 0.8525458517	-4.1029046961	-2.2761621589	-0.280158
H	 1.2988697756	 1.4188353535	-0.0739336962	 0.094558
H	-0.3520086212	 2.0775798401	-0.1959246274	 0.127737
H	 0.1486391857	 1.2539715802	 1.2763929078	 0.127368
H	 1.5436335393	-0.5014224252	-1.2176894695	 0.076321
H	 1.2804505438	-2.1181562585	-3.1992644055	 0.102922
H	 3.0189713039	-3.5515591643	-2.0108241166	 0.119849
H	 2.0132210151	-3.4585283119	-0.4865739002	 0.129976
H	 0.0613096572	-4.5035828811	-1.6535946107	 0.137229
H	 1.0192047342	-4.6353047564	-3.2051913721	 0.121124
58.4428	83.4917	156.6102	207.2055	300.8043	331.8397	374.086	495.045	558.4305	761.8171	820.95	848.6615	976.2168	984.7276	986.7506	1056.9675	1067.6167	1076.8637	1127.1182	1141.7069	1142.9739	1193.8557	1195.5631	1216.4243	1261.0274	1378.0621	1410.4353	1451.4134	1455.6722	1481.2142	1496.7352	1505.6962	1781.1673	2965.4112	3001.5858	3057.2949	3076.6849	3129.9528	3139.9675	3147.8662	3225.5603	3240.6017
CN=COC1CC1	CN=COC1CC1	
InChI=1S/C5H9NO/c1-6-4-7-5-2-3-5/h4-5H,2-3H2,1H3	InChI=1S/C5H9NO/c1-6-4-7-5-2-3-5/h4-5H,2-3H2,1H3
