9
gdb 333	5.7683	2.8663	2.03108	3.263	45.03	-0.3019	-0.0199	0.2821	566.4572	0.05969	-284.048718	-284.042467	-284.041523	-284.078408	21.363	
O	-0.0525169565	 1.4447801179	 0.0286064144	-0.382269
C	 0.0371485712	 0.0343459082	-0.0057818403	-0.165428
C	 0.6935337981	-0.4771937569	-1.2130076275	 0.311204
C	 1.2390433505	-0.8624831919	-2.2103068908	-0.427085
C	 0.7113224244	-0.4942142856	 1.2066737608	 0.278827
N	 1.2363206122	-0.8800758093	 2.1601233679	-0.312347
H	 0.8367150871	 1.8032322161	-0.0803791683	 0.303113
H	-1.0008924989	-0.3192772132	 0.0196456747	 0.174223
H	 1.7178105719	-1.2111392054	-3.0928890708	 0.219762
134.8549	206.2539	221.4154	314.2044	378.5189	515.0954	578.0511	622.6584	662.2156	696.4626	854.111	1006.0567	1067.2853	1265.4285	1310.4912	1414.8988	2245.4527	2361.971	3048.3246	3498.9376	3797.9776
OC(C#C)C#N	O[C@@H](C#C)C#N	
InChI=1S/C4H3NO/c1-2-4(6)3-5/h1,4,6H	InChI=1S/C4H3NO/c1-2-4(6)3-5/h1,4,6H/t4-/m0/s1
