16
gdb 3344	4.12732	3.17761	2.14759	2.616	60.01	-0.2407	0.0718	0.3125	644.3665	0.139997	-325.751822	-325.745995	-325.74505	-325.781272	22.899	
C	 0.0002794438	 1.3723063746	 0.0574642533	-0.071444
C	 1.4235384847	 1.9358329457	-0.0307479379	-0.205638
C	 2.2018413121	 1.267681935	-1.1568451965	-0.03191
N	 2.8035831603	-0.0410909508	-0.8307597102	-0.321847
C	 1.6703298053	 0.0146660557	-1.7622468118	-0.040034
C	 0.3544476732	-0.5422967508	-1.256706625	-0.077318
O	-0.0076556906	-0.0434134193	 0.0149608636	-0.235466
H	-0.4769927415	 1.6547818055	 1.00010145	 0.105914
H	-0.6143593999	 1.7750830317	-0.766440345	 0.080993
H	 1.3730335378	 3.0182446617	-0.1941563888	 0.092581
H	 1.9490460935	 1.7665426277	 0.9143545495	 0.11872
H	 2.7765743562	 1.9277121852	-1.8020245266	 0.082748
H	 3.6708203617	-0.1640753567	-1.3467184202	 0.228175
H	 1.8594803404	-0.1659147836	-2.8191904513	 0.081298
H	-0.4311206501	-0.3061019599	-1.997204595	 0.081491
H	 0.4089002431	-1.6310783317	-1.1538849679	 0.111737
141.9975	286.9706	373.6766	396.4406	457.9651	533.6187	713.7694	775.0955	794.1973	859.3458	877.0664	917.354	960.6402	979.432	1035.8757	1071.7991	1092.6399	1117.832	1147.5436	1168.1808	1212.7224	1245.6977	1260.6168	1281.644	1322.1365	1361.2165	1377.914	1406.6724	1426.9559	1460.2949	1469.9288	1484.7848	1501.6109	2944.5802	2955.4065	3040.7404	3071.2377	3081.8821	3091.8522	3117.1288	3133.3077	3501.928
C1CC2NC2CO1	C1C[C@H]2N[C@H]2CO1	
InChI=1S/C5H9NO/c1-2-7-3-5-4(1)6-5/h4-6H,1-3H2	InChI=1S/C5H9NO/c1-2-7-3-5-4(1)6-5/h4-6H,1-3H2/t4-,5+/m1/s1
