10
gdb 3633	9.76796	2.00898	1.66628	2.9145	58.81	-0.2528	-0.0485	0.2043	675.6484	0.067023	-322.135917	-322.130368	-322.129423	-322.165183	20.275	
C	 0.0844174353	-1.1802469849	-0.0051967735	-0.389084
C	 0.0009815249	 0.0199858244	 0.0027238942	 0.246691
C	-0.1049870933	 1.4235199582	 0.0121035016	 0.300956
C	-1.1777636963	 2.2703540908	 0.0313056318	-0.339403
C	-0.5832093767	 3.5552531945	 0.0305920212	 0.02144
N	 0.7271833205	 3.4942116179	 0.0127290132	-0.119987
O	 1.0407914217	 2.1471910316	 0.0008827579	-0.202481
H	 0.1603210681	-2.2398794372	-0.0122188373	 0.208847
H	-2.2210676212	 2.00620364	 0.0437929712	 0.133845
H	-1.063686343	 4.5232534947	 0.0425109498	 0.139176
168.1032	169.3197	437.0946	521.2814	589.6761	609.28	643.191	687.8276	711.2943	825.981	917.7792	932.8528	958.1875	1009.315	1054.5811	1216.3835	1228.5643	1360.6445	1491.978	1604.8733	2241.5439	3248.0095	3291.5718	3500.487
C#CC1=CC=NO1	C#Cc1ccno1	
InChI=1S/C5H3NO/c1-2-5-3-4-6-7-5/h1,3-4H	InChI=1S/C5H3NO/c1-2-5-3-4-6-7-5/h1,3-4H
