14
gdb 1256	9.18145	1.20891	1.07625	2.7619	61.	-0.2419	0.008	0.2498	1050.0042	0.113425	-357.941534	-357.933674	-357.932729	-357.973624	27.42	
C	-0.5895480584	 1.7307748099	 0.1562310163	-0.310383
N	-0.8875119743	 0.3733876368	 0.56530223	-0.246498
C	-0.2532289318	-0.5586921211	-0.0091465044	 0.125055
N	-0.4863238656	-1.8832696227	 0.3235337896	-0.36006
C	 0.2244500869	-2.9364209399	-0.2394120264	 0.475169
N	-0.1469266599	-4.1742846398	 0.2482543909	-0.568449
O	 1.111984784	-2.7775400972	-1.0520583205	-0.37626
H	 0.1759742746	 1.8005528738	-0.6326415927	 0.102435
H	-1.5035233925	 2.2160495592	-0.2061052805	 0.124923
H	-0.2465685467	 2.3098358434	 1.0217363882	 0.125877
H	 0.505783484	-0.445837019	-0.788645984	 0.132556
H	-1.1473978776	-2.0399089754	 1.069815734	 0.254203
H	-1.0858064473	-4.309831788	 0.5894896854	 0.253489
H	 0.2276132548	-4.94226064	-0.286646796	 0.267941
90.171	126.504	148.4691	207.1305	313.5885	354.8955	386.9712	399.9308	512.7833	562.7051	599.1443	662.7031	771.6206	983.1622	1010.852	1048.4809	1108.4019	1143.5662	1152.9358	1266.8476	1294.013	1370.9827	1448.0419	1480.4332	1497.0279	1525.1785	1627.2204	1764.6687	1817.9668	2977.0626	3057.8361	3072.3415	3097.6144	3583.8578	3620.3879	3702.4381
CN=CNC(N)=O	CN=CNC(=O)N	
InChI=1S/C3H7N3O/c1-5-2-6-3(4)7/h2H,1H3,(H3,4,5,6,7)	InChI=1S/C3H7N3O/c1-5-2-6-3(4)7/h2H,1H3,(H3,4,5,6,7)
