17
gdb 4831	4.39392	1.41295	1.14058	1.3866	73.1	-0.1768	0.0409	0.2178	1068.0863	0.142722	-363.899811	-363.891656	-363.890712	-363.932549	30.054	
C	-0.2576883793	 1.5241419763	-0.1765017228	-0.368604
C	 0.105137996	 0.0369834963	-0.0165142147	-0.293481
C	 0.9014734626	-0.5111348753	-1.14727354	 0.353433
C	 2.1500198917	-1.0241004864	-1.2739035107	-0.252847
C	 2.3279371224	-1.3912817105	-2.6539410125	-0.259903
C	 1.1594869414	-1.0604686743	-3.2703713905	 0.358734
N	 0.7275050286	-1.0805434388	-4.5917260592	-0.594987
O	 0.2826707314	-0.5273748238	-2.385980086	-0.212286
H	 0.6443268811	 2.1407503793	-0.2353220981	 0.119918
H	-0.833713029	 1.68511689	-1.0920718361	 0.128335
H	-0.8581757986	 1.8719095563	 0.6699749596	 0.107828
H	 0.6877972653	-0.1104451344	 0.8988761212	 0.110586
H	-0.8186643487	-0.54528453	 0.1066652326	 0.107785
H	 2.8675120136	-1.140447502	-0.4758376159	 0.098417
H	 3.1961108164	-1.8365441931	-3.1124546663	 0.091387
H	 1.2572817026	-1.7287529673	-5.1582188612	 0.253024
H	-0.2638211075	-1.2721225221	-4.6714449096	 0.25266
65.8976	131.2207	171.3135	198.238	264.9676	306.2414	384.0802	446.0475	606.5735	654.5867	659.6359	708.3393	733.2084	764.9949	785.682	818.3988	945.5291	979.4963	1001.659	1026.6522	1077.2861	1089.5009	1108.3856	1230.7464	1239.7473	1292.1988	1306.1064	1359.5134	1404.6743	1442.0008	1472.1889	1495.468	1507.0242	1611.0217	1646.5714	1673.6512	3009.41	3038.8198	3073.5629	3109.4018	3119.4899	3246.1886	3263.0728	3538.6084	3640.4508
CCC1=CC=C(N)O1	CCc1ccc(N)o1	
InChI=1S/C6H9NO/c1-2-5-3-4-6(7)8-5/h3-4H,2,7H2,1H3	InChI=1S/C6H9NO/c1-2-5-3-4-6(7)8-5/h3-4H,2,7H2,1H3
