15
gdb 4799	4.74575	1.51737	1.15984	1.7287	64.11	-0.1709	0.0621	0.2329	992.9811	0.120194	-396.010524	-396.002521	-396.001577	-396.042777	28.954	
C	-0.0051482455	 1.3784708385	-0.004377904	-0.233966
O	 0.0014036935	-0.0486648661	-0.0457535604	-0.27187
C	 0.635347568	-0.5763783023	-1.1005694764	 0.494825
N	 1.2262264006	 0.0622510758	-2.0812498485	-0.411542
C	 1.7172743671	-0.9358766808	-2.9043686753	 0.283121
N	 2.4733417443	-0.5834376222	-4.0272858058	-0.595511
C	 1.4117580563	-2.1745133408	-2.4100908438	-0.193322
N	 0.703179514	-1.918989541	-1.2258439012	-0.336798
H	 1.0156278439	 1.7704361185	 0.0281467816	 0.140037
H	-0.5097551206	 1.7900091213	-0.8835427923	 0.136935
H	-0.5453828382	 1.6460101298	 0.9044157396	 0.128016
H	 2.2398439077	 0.3524305411	-4.3335449741	 0.245339
H	 2.3748224447	-1.2345775947	-4.794736567	 0.238832
H	 1.6209676244	-3.1745197933	-2.746171617	 0.112406
H	 0.3120489098	-2.5907838339	-0.5895637655	 0.263499
100.5029	144.5902	199.2628	207.4821	251.4015	289.9182	389.9225	435.5648	521.2499	589.0951	634.5169	664.5887	725.3015	751.3897	788.1292	997.6267	1036.851	1073.8595	1084.1185	1129.1779	1184.0098	1221.2609	1277.227	1320.9641	1411.949	1464.6781	1477.1562	1502.0206	1527.5206	1617.463	1627.6451	1658.8639	3040.9349	3111.2127	3149.865	3287.4676	3540.9422	3636.8397	3686.2824
COC1=NC(N)=CN1	COc1nc(N)c[nH]1	
InChI=1S/C4H7N3O/c1-8-4-6-2-3(5)7-4/h2H,5H2,1H3,(H,6,7)	InChI=1S/C4H7N3O/c1-8-4-6-2-3(5)7-4/h2H,5H2,1H3,(H,6,7)
