15
gdb 4934	6.97724	1.26371	1.0786	1.2038	64.82	-0.1794	0.0478	0.2272	1056.9434	0.119022	-399.809082	-399.801289	-399.800344	-399.841018	28.688	
C	-0.038772587	 1.395832364	 0.0194621894	-0.246872
O	-0.0149769064	-0.0192199541	-0.0086008425	-0.257179
C	 0.634646767	-0.5979938556	 1.0254543606	 0.36927
C	 1.2650873171	-0.0308403256	 2.0906853707	-0.198924
O	 1.7833899548	-1.0417793002	 2.887472299	-0.186548
C	 1.4640329881	-2.2147618328	 2.3042675274	 0.423769
N	 1.9689393239	-3.3441068508	 2.9316260678	-0.593649
C	 0.7558404414	-2.0236189934	 1.1556314313	-0.421304
H	 0.9790864312	 1.8080066542	-0.0068570291	 0.121452
H	-0.5870088882	 1.7210498914	-0.8659446228	 0.132401
H	-0.5464267662	 1.76418769	 0.9213626208	 0.120095
H	 1.4393246841	 0.9718363635	 2.4321283456	 0.124736
H	 2.0638918912	-3.2196147718	 3.9315512924	 0.254917
H	 1.4418674258	-4.1800123	 2.7212238438	 0.255828
H	 0.3681518832	-2.7692369185	 0.4819049255	 0.102009
96.2366	181.6092	202.4885	215.0555	243.3385	362.6234	384.803	488.7302	570.668	629.8845	640.9809	673.327	712.8256	737.8766	763.1792	961.972	997.2949	1067.764	1090.8329	1146.1998	1182.7099	1205.376	1223.5954	1268.323	1360.3684	1462.8306	1481.5522	1482.5635	1509.9239	1610.3114	1641.4265	1678.3091	2998.2274	3053.6329	3136.0755	3271.6781	3311.7845	3548.3378	3649.905
COC1=COC(N)=C1	COc1coc(N)c1	
InChI=1S/C5H7NO2/c1-7-4-2-5(6)8-3-4/h2-3H,6H2,1H3	InChI=1S/C5H7NO2/c1-7-4-2-5(6)8-3-4/h2-3H,6H2,1H3
