13
gdb 4608	5.70973	1.63264	1.2714	3.3692	67.49	-0.2002	-0.0657	0.1345	886.6245	0.097088	-394.794407	-394.787627	-394.786683	-394.825308	25.671	
N	 0.0615466088	 1.4363646584	 0.1033518779	-0.574104
C	-0.0418995358	 0.052196994	-0.0465480755	 0.275744
C	-1.1984525712	-0.6382522456	-0.1040853204	-0.029899
O	-1.2235054822	-1.9891816829	-0.3369730598	-0.223468
C	-0.0488568043	-2.6780301524	-0.5125761131	 0.360252
N	-0.0052925291	-3.9286972735	-0.7384106242	-0.532796
C	 1.1633009188	-1.8641360153	-0.4133228165	-0.015364
N	 1.1796409245	-0.5979091565	-0.1999135834	-0.261992
H	 0.9517478109	 1.6970053386	 0.5061471759	 0.255905
H	-0.7096902254	 1.8710385035	 0.5898822976	 0.248357
H	-2.1921738629	-0.2285211337	 0.0113210146	 0.126648
H	-0.9447751946	-4.3268920437	-0.7712645837	 0.224956
H	 2.1028176225	-2.3981512109	-0.5304703594	 0.145762
89.312	220.8262	331.8849	344.7762	351.6741	429.9145	509.7551	532.4315	628.9812	669.495	759.8308	788.8047	815.4576	824.4419	855.7192	943.6109	968.0319	1060.5687	1121.6795	1198.0438	1289.2048	1330.6707	1366.2274	1415.1075	1614.8524	1638.5286	1692.1928	1728.7901	3173.1932	3229.7128	3483.5777	3553.1192	3656.4735
NC1=COC(=N)C=N1	NC1=COC(=C[N]1)[NH]	
InChI=1S/C4H5N3O/c5-3-2-8-4(6)1-7-3/h1-2,6H,5H2	InChI=1S/C4H5N3O/c5-3-2-8-4(6)1-7-3/h1-2,6H,5H2
