14
gdb 2895	6.43094	1.85652	1.57725	3.0735	57.31	-0.2754	0.0298	0.3052	758.4513	0.115674	-324.594826	-324.588399	-324.587455	-324.626036	22.655	
N	-0.2339894944	-1.1037185431	-0.5274431794	-0.322762
C	-0.1361739547	 0.0163586773	-0.258476891	 0.257579
C	 0.0079738283	 1.4253285878	 0.0822828573	-0.137866
C	-0.5317307121	 1.8024793121	 1.4986513173	-0.253011
C	 0.6223174465	 2.6402279248	 2.1020498888	-0.076062
O	 1.4573973309	 3.0085633647	 1.0123966455	-0.233118
C	 1.488056293	 1.8963489993	 0.1482603795	-0.097499
H	-0.5140015262	 2.0141356556	-0.6772465387	 0.134559
H	-1.4538848765	 2.3789439884	 1.4098534128	 0.12759
H	-0.746051149	 0.9159259989	 2.0974803197	 0.133764
H	 0.2873823325	 3.5573880295	 2.5910294694	 0.120643
H	 1.1889795994	 2.0423197835	 2.8316401072	 0.104195
H	 2.1223695252	 1.0889195983	 0.5463976862	 0.11209
H	 1.882403737	 2.2148299228	-0.8182806147	 0.129898
38.5434	172.9176	220.7121	297.7063	508.8022	546.9535	581.6742	672.3813	804.8024	871.4842	941.5526	963.4909	993.6142	1043.4219	1061.1181	1105.7345	1131.4385	1221.4161	1233.4925	1269.8857	1299.2156	1308.6082	1329.951	1365.9653	1403.2976	1497.031	1508.5959	1525.0669	2357.6416	2986.8233	2994.2652	3070.8069	3085.4058	3105.6163	3118.9925	3136.676
N#CC1CCOC1	N#C[C@H]1CCOC1	
InChI=1S/C5H7NO/c6-3-5-1-2-7-4-5/h5H,1-2,4H2	InChI=1S/C5H7NO/c6-3-5-1-2-7-4-5/h5H,1-2,4H2/t5-/m1/s1
