7
gdb 755	10.15434	4.1248	2.93327	1.3883	34.59	-0.2947	-0.0759	0.2189	394.0664	0.037566	-353.269456	-353.265112	-353.264168	-353.297148	14.861	
N	-0.1006230581	 1.3250307958	 0.0103312477	-0.549078
C	-0.0038777449	 0.0813167917	 0.0032134124	 0.564382
O	 1.1117648449	-0.7257381167	-0.0079541012	-0.222237
N	 0.6604709396	-2.0457591154	-0.0122614353	 0.069001
N	-0.5727823473	-2.0651335076	-0.0040366987	 0.080608
O	-1.0767345304	-0.7721094567	 0.0055864858	-0.201781
H	 0.8088668162	 1.778427849	 0.0070336693	 0.259105
207.5412	432.7498	637.1126	714.289	745.8955	771.8346	786.5808	921.6641	980.3102	1019.2249	1054.2793	1257.4794	1572.4138	1832.9758	3555.2639
N=C1ON=NO1	[NH][C@H]1ON=NO1	
InChI=1S/CHN3O2/c2-1-5-3-4-6-1/h2H	InChI=1S/CH2N3O2/c2-1-5-3-4-6-1/h1-2H
