13
gdb 4369	3.7829	2.02866	1.3216	3.2469	65.22	-0.2141	-0.0285	0.1855	851.9335	0.098285	-394.846097	-394.839643	-394.838699	-394.876398	25.301	
N	 0.0644650447	 1.3484305359	 0.1366720137	-0.567195
C	 0.0139392899	-0.0230052687	 0.0431606746	 0.362924
C	-1.201319717	-0.7307420334	 0.0813420391	-0.083187
N	-1.2300851962	-2.0573662154	 0.0402722929	-0.214223
C	-0.0726145203	-2.7098426089	-0.0353465665	-0.10486
C	 1.1303360223	-1.997187749	-0.0756132514	 0.401742
O	 2.2948549407	-2.668903522	-0.1584652262	-0.41493
N	 1.1823624002	-0.6718743276	-0.0420998847	-0.406811
H	 0.9345204978	 1.7641429457	-0.1584430164	 0.257601
H	-0.7618856969	 1.8587675541	-0.1302312164	 0.258308
H	-2.15060379	-0.2058081768	 0.1473814166	 0.097174
H	-0.0828557598	-3.7933230299	-0.0683424591	 0.116122
H	 2.9945612747	-2.0012282839	-0.1703744663	 0.297335
195.0007	241.6891	321.8522	394.5126	468.4481	473.2655	491.7164	536.8402	573.4371	586.0884	701.1852	749.7526	780.8716	860.2952	899.7658	1010.5134	1014.3778	1114.6089	1195.7226	1208.6203	1300.8624	1333.2564	1396.7516	1484.3226	1524.5619	1597.434	1629.9026	1648.955	3157.0367	3193.2844	3586.9449	3702.4828	3767.722
NC1=CN=CC(O)=N1	Nc1cncc(O)n1	
InChI=1S/C4H5N3O/c5-3-1-6-2-4(8)7-3/h1-2H,(H3,5,7,8)	InChI=1S/C4H5N3O/c5-3-1-6-2-4(8)7-3/h1-2H,(H3,5,7,8)
