9
gdb 3939	6.45743	2.98794	2.04274	3.9988	46.16	-0.2619	-0.0944	0.1675	552.7752	0.056727	-371.537915	-371.532929	-371.531984	-371.566733	17.786	
O	 0.1121525315	 1.2964737634	 0.1232719691	-0.364065
C	 0.0718240836	-0.0248767421	 0.0321267242	 0.515314
N	 0.0958507279	-0.5866700358	-1.1730258151	-0.314073
C	 0.0499596374	-1.9112804833	-1.1171975883	 0.124969
N	-0.0136212273	-2.6436630334	-0.0022625174	-0.185972
N	-0.0330927109	-1.9945957986	 1.1536441347	-0.036993
N	 0.008578855	-0.6826158261	 1.2019409532	-0.212937
H	 0.155625154	 1.645938232	-0.7792808226	 0.319282
H	 0.0652202889	-2.4600322563	-2.0550750579	 0.154475
160.4895	343.9953	445.9017	561.2882	604.0928	604.1188	708.3862	860.9371	916.6969	983.8647	1010.6531	1046.4068	1153.3435	1194.1923	1349.694	1378.7033	1486.6107	1553.9014	1597.5662	3181.2675	3758.1346
OC1=NC=NN=N1	Oc1ncnnn1	
InChI=1S/C2H2N4O/c7-2-3-1-4-6-5-2/h1H,(H,3,4,5,7)	InChI=1S/C2H2N4O/c7-2-3-1-4-6-5-2/h1H,(H,3,4,5,7)
