12
gdb 340	9.01877	2.42338	1.93317	2.4166	51.06	-0.2595	-0.0171	0.2424	607.0428	0.096802	-302.579718	-302.573326	-302.572382	-302.60969	21.581	
C	-0.0193723633	 1.4952870999	 0.0236744227	-0.335269
N	-0.0002539883	 0.0357778326	 0.0184138681	-0.047905
C	 0.0501841251	-0.6505643905	 1.2204964949	 0.091239
N	 0.0802831602	-0.0372662423	 2.3325489879	-0.460949
C	-0.0324382492	-0.6574789102	-1.1756249465	 0.170299
O	-0.0784110545	-0.1520001932	-2.2706089956	-0.316037
H	 0.8769395742	 1.876824086	 0.5179186733	 0.150433
H	-0.0578859612	 1.8245568194	-1.0131437952	 0.163552
H	-0.8910144252	 1.8536542082	 0.5760255116	 0.150378
H	 0.0598605167	-1.737370772	 1.0838383964	 0.11037
H	 0.1156184735	-0.7018409499	 3.1028167379	 0.233564
H	-0.0138479278	-1.7516021681	-1.0156865654	 0.090326
119.5495	144.9089	279.5802	305.2533	325.7008	347.8733	553.5202	730.2187	827.9988	868.9446	1027.9561	1060.4051	1075.1675	1160.6424	1187.7111	1308.6772	1389.8051	1425.1833	1449.0838	1457.808	1488.2866	1509.2492	1717.911	1822.2753	2959.4255	3062.75	3064.6557	3128.5218	3180.5271	3511.6917
CN(C=N)C=O	CN(C=N)C=O	
InChI=1S/C3H6N2O/c1-5(2-4)3-6/h2-4H,1H3	InChI=1S/C3H6N2O/c1-5(2-4)3-6/h2-4H,1H3
