16
gdb 1621	3.05932	2.30622	1.77809	3.0848	60.54	-0.2839	0.028	0.3119	790.0257	0.135329	-325.80068	-325.792432	-325.791488	-325.832828	29.453	
C	 0.0284397863	 1.5430555995	 0.1301462575	-0.421941
C	-0.0204124196	 0.0209012502	 0.0167050415	 0.137026
O	-1.3412489066	-0.4804796763	 0.1151553903	-0.428248
C	 0.6811613979	-0.5139782984	-1.268551808	-0.135978
C	 0.7844316549	-2.0499628316	-1.2619826206	-0.397256
C	-0.0577767418	-0.047268873	-2.4465298148	 0.262244
N	-0.6833622473	 0.3278097487	-3.3440425049	-0.331607
H	 1.060993882	 1.9058225393	 0.1614720691	 0.120024
H	-0.4692982631	 2.0161356594	-0.7237910809	 0.137494
H	-0.4786250231	 1.8608074006	 1.0445389526	 0.133072
H	 0.5130989297	-0.4243922983	 0.8645659581	 0.097144
H	-1.8737823407	-0.0524683532	-0.5669479794	 0.294085
H	 1.6874636399	-0.0792499929	-1.3163991757	 0.123404
H	-0.2068800066	-2.4881372268	-1.1321528695	 0.152795
H	 1.2204283951	-2.423042818	-2.1914126992	 0.13335
H	 1.4170230632	-2.3699566694	-0.4290396461	 0.124391
84.5471	145.6999	213.3412	226.0752	238.3591	260.8395	355.6406	380.3419	410.7297	486.5661	580.6926	671.5453	749.8449	867.8173	932.4738	998.1269	1028.1884	1064.891	1095.5442	1119.6734	1174.9708	1264.2234	1307.9825	1338.2671	1366.5557	1406.2521	1409.9343	1429.5364	1490.5966	1494.431	1497.1989	1502.7023	2348.3991	3034.6857	3039.3543	3047.5792	3053.8767	3105.5883	3125.0268	3126.6093	3146.8155	3780.9353
CC(O)C(C)C#N	C[C@@H](O)[C@@H](C)C#N	
InChI=1S/C5H9NO/c1-4(3-6)5(2)7/h4-5,7H,1-2H3	InChI=1S/C5H9NO/c1-4(3-6)5(2)7/h4-5,7H,1-2H3/t4-,5+/m0/s1
