11
gdb 104	7.51163	5.3853	3.80314	2.4925	38.43	-0.2369	0.0642	0.3011	370.2795	0.090396	-268.251114	-268.245852	-268.244908	-268.278934	19.173	
O	-0.2169888143	 1.3823277095	-0.0106548661	-0.426973
C	-0.0426474189	-0.010562771	 0.0035949556	 0.052721
C	-0.4453771241	-0.7881010922	 1.2394200162	-0.355302
C	-1.3387587856	-0.7700616374	 0.0145413684	 0.145915
O	-2.5191234967	-0.0351281811	 0.0349349033	-0.431853
H	 0.3113229379	 1.7666621869	 0.6958520488	 0.296305
H	 0.7915068049	-0.3680458576	-0.5969831073	 0.09455
H	 0.1076296551	-1.6883205888	 1.4858531112	 0.114519
H	-0.7972945671	-0.2116304484	 2.0891830573	 0.116345
H	-1.4223516645	-1.6756434095	-0.5786647882	 0.101829
H	-2.2516868166	 0.8937632796	-0.0114093592	 0.291943
253.2496	284.0131	321.6211	429.1542	480.0867	630.5251	752.0656	811.6764	879.3289	997.5921	1005.5983	1063.2487	1113.7661	1137.3087	1169.5416	1230.7226	1292.0339	1350.915	1393.2318	1427.5374	1477.2902	3118.1652	3127.2554	3156.5043	3220.8607	3737.7654	3818.3202
OC1CC1O	O[C@H]1C[C@H]1O	
InChI=1S/C3H6O2/c4-2-1-3(2)5/h2-5H,1H2	InChI=1S/C3H6O2/c4-2-1-3(2)5/h2-5H,1H2/t2-,3+
