11
gdb 161	7.8609	7.51415	4.27374	1.3482	38.2	-0.2572	0.0865	0.3437	333.797	0.092697	-268.273739	-268.269015	-268.268071	-268.302293	15.172	
C	 0.0077793097	 1.3950029825	-0.045978921	-0.106533
C	 1.4693665447	 1.8749690243	 0.1182560815	-0.085112
O	 2.2208235984	 0.6703219304	 0.2542775287	-0.246713
C	 1.3334756339	-0.3973860484	 0.0033033335	 0.029584
O	 0.0530047171	 0.0395523163	 0.3758065371	-0.228331
H	-0.7061156037	 1.9298117903	 0.5837023242	 0.120969
H	-0.3172207006	 1.4672020123	-1.0946359937	 0.099941
H	 1.8106462782	 2.4510281259	-0.7507605616	 0.10346
H	 1.6158424516	 2.4794551647	 1.019622838	 0.113587
H	 1.3561304674	-0.6733921441	-1.0682493528	 0.078927
H	 1.6130111632	-1.2564323741	 0.6199154961	 0.12022
35.5913	272.0194	702.5616	743.7295	857.7714	941.0943	955.9775	989.8506	1066.705	1114.5429	1158.5918	1189.6509	1214.0475	1228.5289	1266.7004	1354.0519	1373.1585	1434.0366	1515.1303	1528.2037	1545.8394	2920.5048	2992.6476	3024.3298	3066.8069	3087.2732	3109.9206
C1COCO1	C1COCO1	
InChI=1S/C3H6O2/c1-2-5-3-4-1/h1-3H2	InChI=1S/C3H6O2/c1-2-5-3-4-1/h1-3H2
