15
gdb 1183	3.92303	1.94016	1.81986	3.0185	53.44	-0.2529	-0.0296	0.2233	761.0814	0.121563	-382.793238	-382.78478	-382.783836	-382.82601	29.559	
C	 0.1103800694	 1.6212432544	 0.1964386677	-0.425881
C	 0.066687019	 0.0940250151	 0.0476500939	 0.282089
O	 0.6455394149	-0.5642565414	 1.1619209204	-0.479202
C	-1.3788887758	-0.4093658456	-0.1379772008	-0.111584
O	-2.0354651806	-0.1933822543	 1.1062537655	-0.432899
C	 0.8681438282	-0.3517394811	-1.1729393941	 0.135839
O	 0.7343612292	 0.1205210524	-2.2718702033	-0.260642
H	 1.1198778921	 1.9365090092	 0.4718640416	 0.126378
H	-0.1644340761	 2.0993837522	-0.7473899476	 0.133941
H	-0.5833954833	 1.9415345329	 0.9776677176	 0.130117
H	-0.0388984028	-0.5754641115	 1.8434148667	 0.289737
H	-1.8616903764	 0.1368162358	-0.9585047734	 0.115923
H	-1.3624559187	-1.4792674969	-0.39006234	 0.100061
H	-2.8402002594	-0.7183513558	 1.1265048238	 0.299511
H	 1.5797311204	-1.1783807055	-0.9571002179	 0.096612
48.7317	134.1391	208.5315	227.026	236.8859	266.2982	319.9311	354.6413	429.4185	435.7175	508.927	658.4785	759.6614	906.486	951.2494	974.3215	997.998	1074.0884	1138.2609	1164.7454	1199.2646	1250.7922	1292.0216	1375.5561	1384.0032	1408.5857	1438.8211	1491.9764	1495.1144	1511.2033	1832.9587	2904.2324	2997.4485	3048.7068	3051.1994	3130.918	3133.6469	3773.7646	3844.4072
CC(O)(CO)C=O	C[C@@](O)(CO)C=O	
InChI=1S/C4H8O3/c1-4(7,2-5)3-6/h2,6-7H,3H2,1H3	InChI=1S/C4H8O3/c1-4(7,2-5)3-6/h2,6-7H,3H2,1H3/t4-/m0/s1
