11
gdb 2644	38.60765	0.77693	0.76525	4.6751	78.37	-0.2579	-0.0807	0.1772	1390.2566	0.075774	-306.081547	-306.07355	-306.072606	-306.117159	24.939	
C	-0.0009788048	 1.4821512704	 0.0099200466	-0.520244
C	 0.0047363339	 0.0325864473	 0.0020943923	 0.275907
C	 0.0066564181	-1.1787812712	-0.0044089569	-0.186263
C	 0.0068768503	-2.533080967	-0.0116728154	-0.153092
C	 0.0032331526	-3.7481948062	-0.0181630545	 0.237573
C	 0.0396013907	-5.1846854602	-0.0261302663	-0.034724
O	-0.9403396282	-5.8959500583	-0.0228420739	-0.223182
H	 1.0178408204	 1.884355541	 0.000825106	 0.165205
H	-0.5278318428	 1.8745702789	-0.866990059	 0.168105
H	-0.5082251476	 1.865031666	 0.9024714028	 0.168115
H	 1.0639023076	-5.6095389707	-0.0358330717	 0.102599
2.581	74.5375	91.3312	182.2558	229.9505	337.2069	389.2658	475.2815	532.122	593.8885	720.8889	963.6397	1017.3182	1043.1408	1047.2268	1292.6774	1409.4277	1420.7332	1466.0651	1468.2973	1753.2328	2255.1187	2360.5289	2919.3338	3027.9397	3092.648	3094.2876	2.595	74.5383	91.3321	182.2554	229.9498	337.2061	389.2647	475.2814	532.1208	593.8881	720.8889	963.6397	1017.3183	1043.1404	1047.2265	1292.6775	1409.4277	1420.7333	1466.0649	1468.2971	1753.2326	2255.1185	2360.5289	2919.3338	3027.9397	3092.648	3094.2876
CC#CC#CC=O	CC#CC#CC=O	
InChI=1S/C6H4O/c1-2-3-4-5-6-7/h6H,1H3	InChI=1S/C6H4O/c1-2-3-4-5-6-7/h6H,1H3
