10
gdb 78	10.68182	4.39532	3.17969	2.329	35.5	-0.2669	0.0575	0.3244	398.5908	0.079271	-284.385189	-284.379361	-284.378417	-284.414085	19.084	
C	-0.0264577138	 1.3830575346	 0.0208565982	-0.228597
O	 0.041395659	-0.0443950268	-0.0027745202	-0.246674
C	 0.6677533829	-0.5600162492	-1.0900034378	 0.4969
N	 0.7260506332	-1.922199833	-0.9882295382	-0.561385
O	 1.1295238124	 0.0964814339	-1.993221805	-0.39876
H	 0.9752977936	 1.820443067	 0.0238730558	 0.139341
H	-0.5708569818	 1.7621462071	-0.8479042532	 0.138165
H	-0.5541072228	 1.6383573051	 0.9404359441	 0.12841
H	 0.1266269616	-2.3840158969	-0.3256692892	 0.264178
H	 0.9723006956	-2.4179842118	-1.8273257347	 0.268422
96.2477	164.25	291.6366	345.8684	466.1081	519.1699	667.8904	785.9021	877.4448	1093.0763	1128.7907	1183.9184	1215.7914	1361.3466	1479.2112	1481.1526	1503.5786	1612.694	1837.9869	3049.2062	3122.6074	3152.3669	3615.1611	3744.7255
COC(N)=O	COC(=O)N	
InChI=1S/C2H5NO2/c1-5-2(3)4/h1H3,(H2,3,4)	InChI=1S/C2H5NO2/c1-5-2(3)4/h1H3,(H2,3,4)
