15
gdb 2009	5.74265	2.08374	2.02612	2.74	62.46	-0.2461	-0.0278	0.2183	691.0499	0.125734	-308.475489	-308.469386	-308.468442	-308.505736	22.871	
O	-0.0359182494	-0.0041458131	 0.0023784093	-0.245361
C	 0.0416123997	 1.1994505761	 0.0056992873	 0.028247
C	 1.3205871347	 1.9616593759	-0.0002556939	 0.264868
C	 2.7679409359	 1.4014383984	-0.0177084139	-0.248634
C	 2.9170572538	 2.9525169065	-0.0059752755	-0.042302
C	 1.7828405098	 3.0103392971	-1.0698655181	-0.25484
C	 1.802143372	 2.99210052	 1.0788009388	-0.254557
H	-0.8751037674	 1.8354990243	 0.0146749211	 0.067568
H	 3.0914862418	 0.8675506825	 0.8785173797	 0.101427
H	 3.0755265405	 0.8826695347	-0.9283400828	 0.101322
H	 3.8458460819	 3.5230314961	-0.0094839506	 0.079985
H	 2.0112366232	 2.6110522369	-2.0612412743	 0.103272
H	 1.2079005261	 3.9381089927	-1.1286006606	 0.0978
H	 1.2283796689	 3.9185840037	 1.1635174911	 0.097825
H	 2.0479758185	 2.5759303881	 2.0589835922	 0.103381
71.2623	186.5732	271.9853	455.1735	536.118	538.0317	709.805	764.6447	818.4007	881.9408	907.5453	955.6017	961.1246	987.8128	998.9914	1026.6846	1098.5491	1100.4416	1134.8372	1136.876	1163.8346	1170.2219	1229.2959	1231.7666	1241.9422	1309.8345	1421.0736	1496.5043	1499.1944	1551.7154	1817.7798	2851.4953	3051.9187	3055.7701	3065.6999	3113.1748	3120.4171	3124.8973	3132.0592
O=CC12CC(C1)C2	O=C[C@@]12C[C@@H](C1)C2	
InChI=1S/C6H8O/c7-4-6-1-5(2-6)3-6/h4-5H,1-3H2	InChI=1S/C6H8O/c7-4-6-1-5(2-6)3-6/h4-5H,1-3H2/t5-,6-
