16
gdb 2751	4.32357	2.21715	1.68273	4.1063	64.54	-0.3022	0.0285	0.3306	766.5848	0.137534	-288.653249	-288.646142	-288.645198	-288.684339	25.986	
C	-0.1631833076	 1.5271760317	-0.0061272535	-0.397794
C	-0.0097073392	 0.0114872329	-0.0346501069	 0.008322
C	 1.1964598487	-0.4982944994	-0.879049364	-0.225913
C	 2.020349946	-0.680348924	 0.4222134974	-0.225559
C	 0.6875613659	-0.6137685179	 1.2320762813	-0.138693
C	 0.6711935595	 0.1305724299	 2.4790815499	 0.270986
N	 0.6620748962	 0.7425459379	 3.4607291027	-0.336288
H	 0.7857650953	 2.0261125897	 0.2175242993	 0.12606
H	-0.5096643109	 1.8884158566	-0.9798570798	 0.118553
H	-0.8870339712	 1.8405513295	 0.7521069851	 0.136177
H	-0.9707246616	-0.4538925602	-0.26818383	 0.083363
H	 0.9866781368	-1.4506026545	-1.3728002398	 0.108004
H	 1.5940603448	 0.1980029994	-1.6207096919	 0.107995
H	 2.6059139733	-1.594091639	 0.534873733	 0.115491
H	 2.6627019701	 0.1757792429	 0.6362336835	 0.12738
H	 0.3005370939	-1.6192085755	 1.4204634735	 0.121916
93.2433	145.1969	216.8589	249.6567	333.616	364.8188	534.779	555.3783	661.7312	757.9855	792.2772	886.6588	914.7523	949.371	959.3289	1009.064	1047.6218	1102.0988	1123.6882	1159.7832	1221.4447	1241.7149	1259.9005	1275.7537	1285.2494	1341.1236	1367.1286	1416.9771	1480.9345	1493.1781	1496.9149	1499.1113	2348.6385	3035.0319	3060.4872	3065.4924	3075.73	3080.6619	3104.595	3110.3596	3114.0308	3138.0129
CC1CCC1C#N	C[C@H]1CC[C@H]1C#N	
InChI=1S/C6H9N/c1-5-2-3-6(5)4-7/h5-6H,2-3H2,1H3	InChI=1S/C6H9N/c1-5-2-3-6(5)4-7/h5-6H,2-3H2,1H3/t5-,6-/m0/s1
