15
gdb 2444	4.17977	3.49904	2.78071	1.6033	55.75	-0.243	0.0906	0.3336	565.4118	0.127826	-345.625747	-345.6205	-345.619556	-345.654418	21.358	
C	-0.0338891853	 1.5548378583	-0.0502945419	-0.229835
C	 1.5151676148	 1.4313813664	-0.0253747647	 0.121705
C	 1.3213426574	 0.1204743114	 0.7901579568	-0.283773
C	-0.0033028566	 0.0013203682	-0.0174565161	 0.121704
O	 0.2444076501	-0.4688641712	-1.3443341095	-0.276024
C	 1.5416206186	-0.1276784821	-1.7867496866	 0.029059
O	 1.9623450554	 1.1490412579	-1.3532803015	-0.276024
H	-0.4366052109	 1.9875466477	 0.8692770083	 0.097346
H	-0.4769420702	 2.0203964578	-0.9318139714	 0.106692
H	 2.1374564677	 2.241037379	 0.3578790284	 0.080832
H	 2.0682573793	-0.6729444569	 0.731084677	 0.110004
H	 1.114503398	 0.3459004211	 1.8381178058	 0.11023
H	-0.8466489244	-0.5693363466	 0.3734241176	 0.080832
H	 2.2607788458	-0.8894070385	-1.445860873	 0.088245
H	 1.5231524402	-0.1141122826	-2.8796769094	 0.119005
292.1746	318.6658	464.3297	466.8418	479.3693	633.5419	798.0012	837.3568	852.7804	863.4796	907.6792	931.3311	988.8915	1006.2505	1010.503	1065.7249	1098.0342	1133.7144	1181.7707	1183.4514	1192.5072	1232.4223	1258.2828	1270.9203	1280.3965	1356.1157	1370.111	1445.3455	1460.2287	1493.1902	1545.8872	2969.0336	3065.4034	3078.8049	3091.0721	3103.7321	3107.9218	3134.6401	3139.0258
C1C2CC1OCO2	C1[C@H]2C[C@@H]1OCO2	
InChI=1S/C5H8O2/c1-4-2-5(1)7-3-6-4/h4-5H,1-3H2	InChI=1S/C5H8O2/c1-4-2-5(1)7-3-6-4/h4-5H,1-3H2/t4-,5+
