17
gdb 2238	4.45208	2.72222	2.19008	1.2516	63.42	-0.2241	0.0887	0.3127	678.7449	0.149442	-309.715058	-309.708558	-309.707614	-309.744945	25.465	
C	-0.0397692296	 1.5736673927	 0.1235649351	-0.464116
C	 0.1370806074	 0.0846352948	 0.0445056237	 0.463784
C	-0.8188091844	-0.8868259668	 0.6961440794	-0.356699
C	 0.6333907392	-0.8079468273	 1.1489445301	-0.104918
C	 1.613914619	-1.7672051873	 0.495881129	-0.235884
C	 1.2940328001	-1.6098754819	-1.008618709	-0.092457
O	 0.7254637529	-0.3133161137	-1.1754778813	-0.293979
H	 0.9211529688	 2.0834590518	-0.0000351791	 0.122154
H	-0.7138597757	 1.9263507616	-0.6640620165	 0.126873
H	-0.4654761844	 1.8599667088	 1.089118821	 0.115195
H	-1.5658637067	-0.4738476242	 1.3657578325	 0.109173
H	-1.1536794386	-1.7580322678	 0.1425314406	 0.11167
H	 0.8558927148	-0.4202755347	 2.1365958577	 0.085587
H	 2.6385716101	-1.4481051433	 0.715046445	 0.106442
H	 1.5101940075	-2.8064658127	 0.8232476032	 0.102731
H	 2.1760430635	-1.6765970921	-1.6519261601	 0.107651
H	 0.5827914262	-2.3810784778	-1.3365212413	 0.096792
200.0241	204.4478	224.199	318.4054	402.8445	433.1791	610.8118	664.8696	712.4194	817.6124	841.4338	870.6081	912.746	932.8991	943.7209	994.6186	1025.3322	1041.2725	1090.4979	1095.16	1124.2443	1139.8988	1221.0308	1236.9966	1245.3759	1281.4485	1326.1274	1388.3763	1395.6208	1428.6526	1477.0397	1483.9829	1496.0338	1507.4827	1530.775	2999.8168	3036.1564	3043.1521	3077.7911	3090.2931	3100.3994	3117.1804	3128.331	3171.1907	3212.9899
CC12CC1CCO2	C[C@]12C[C@H]1CCO2	
InChI=1S/C6H10O/c1-6-4-5(6)2-3-7-6/h5H,2-4H2,1H3	InChI=1S/C6H10O/c1-6-4-5(6)2-3-7-6/h5H,2-4H2,1H3/t5-,6+/m1/s1
