14
gdb 3723	7.0695	1.97016	1.68741	2.3232	58.28	-0.2562	0.0127	0.2689	746.512	0.116034	-320.792773	-320.786328	-320.785384	-320.823648	22.89	
C	-0.1252558877	 1.5269465586	 0.0573906385	-0.374071
C	 0.1407920066	 0.0149841974	-0.0088948208	-0.276352
C	 0.799240433	-0.5079220913	 1.2275367475	 0.352099
N	 2.0098947723	-1.0489641489	 1.2224201876	-0.267393
N	 2.1930650937	-1.3615549787	 2.5295279188	-0.17911
C	 1.112552356	-1.0043160418	 3.249656357	 0.017061
N	 0.2078421612	-0.4599153827	 2.463062515	-0.300108
H	 0.8117858538	 2.0861053485	 0.1420222681	 0.119724
H	-0.6447630812	 1.867770025	-0.8431131	 0.1112
H	-0.7434940779	 1.7699080092	 0.9256937576	 0.137498
H	-0.8098898271	-0.512929138	-0.1491049758	 0.117349
H	 0.7777071617	-0.2281333215	-0.8639147716	 0.118371
H	 3.0485776395	-1.8006300816	 2.8264705915	 0.280331
H	 1.0329702961	-1.1586383042	 4.3155288265	 0.143401
52.1252	168.84	212.0423	348.9308	413.8795	531.5355	664.3895	681.3858	765.0869	804.4746	856.7086	967.1476	999.7986	1008.1962	1070.1573	1091.8306	1103.9719	1169.6338	1272.2476	1296.1982	1347.2083	1359.8808	1405.8303	1470.8104	1475.2436	1485.9866	1496.4308	1513.639	1563.0109	3039.7953	3042.0226	3093.7218	3111.3244	3125.6027	3255.4148	3668.6558
CCC1=NNC=N1	CCc1n[nH]cn1	
InChI=1S/C4H7N3/c1-2-4-5-3-6-7-4/h3H,2H2,1H3,(H,5,6,7)	InChI=1S/C4H7N3/c1-2-4-5-3-6-7-4/h3H,2H2,1H3,(H,5,6,7)
