11
gdb 3864	6.09697	2.87068	1.95414	3.7364	55.37	-0.231	-0.0631	0.1679	599.7868	0.081	-335.62848	-335.623001	-335.622057	-335.657504	20.488	
N	-0.0103949177	 1.367281898	 0.1631172692	-0.562766
C	-0.0201453303	 0.0006442969	 0.0566296069	 0.396064
C	-1.2156257372	-0.7505292915	 0.0361115096	-0.04324
N	-1.1811658732	-2.0645525312	-0.0120797223	-0.221735
C	 0.0487500882	-2.6061955073	-0.0337366418	 0.085121
N	 1.1972892665	-1.9432740449	-0.0239642373	-0.178497
N	 1.1667689134	-0.6148935366	 0.0147073843	-0.251248
H	 0.8800785794	 1.7983538828	-0.0379367227	 0.267143
H	-0.8166469335	 1.8719901515	-0.1678281191	 0.26155
H	-2.1892426301	-0.2625765839	 0.0582832583	 0.116902
H	 0.1195769445	-3.6880396438	-0.067089065	 0.130706
181.5208	352.4269	391.8518	408.5179	480.7983	575.5191	609.4885	647.344	794.4527	870.0282	918.0879	971.3392	1049.8436	1066.4081	1120.9188	1187.6269	1249.2911	1358.5031	1437.0239	1469.8922	1553.7434	1608.6711	1644.4576	3132.8777	3196.9102	3579.6565	3697.5822
NC1=CN=CN=N1	Nc1cncnn1	
InChI=1S/C3H4N4/c4-3-1-5-2-6-7-3/h1-2H,(H2,4,7)	InChI=1S/C3H4N4/c4-3-1-5-2-6-7-3/h1-2H,(H2,4,7)
