15
gdb 2540	3.96354	1.88162	1.34074	3.0923	59.08	-0.2508	0.0459	0.2967	865.0086	0.123361	-345.608831	-345.600739	-345.599795	-345.640944	29.064	
O	 0.1504767505	 1.4062558262	 0.1845639718	-0.425697
C	 0.0700671638	 0.0136810967	-0.000472906	-0.051312
C	-1.391708108	-0.5084789776	-0.0017729528	-0.195814
C	-2.1505391588	-0.0940161754	-1.2747346285	-0.084592
O	-2.1468519522	 1.3312228373	-1.3565110593	-0.424039
C	-1.4258313669	-1.9607202819	 0.1279495037	 0.302329
C	-1.4235699934	-3.1603647342	 0.205632707	-0.448274
H	-0.4640839781	 1.8010660163	-0.4484070393	 0.290177
H	 0.5570725588	-0.3139570823	-0.9350790198	 0.085871
H	 0.6125163604	-0.4519142475	 0.8275230201	 0.116109
H	-1.896037271	-0.0495332519	 0.8589074772	 0.123254
H	-1.6528518897	-0.5407004012	-2.14750681	 0.106695
H	-3.178048979	-0.4795672018	-1.2356472546	 0.110414
H	-2.5003486517	 1.5915834202	-2.2118583502	 0.297769
H	-1.4289305348	-4.2186677431	 0.2931180306	 0.197109
108.8496	135.2978	149.3373	224.9578	254.885	314.2909	383.3154	457.5676	507.0263	515.0389	558.5264	636.1852	651.8696	858.2828	916.1664	1005.1397	1054.8668	1065.5703	1096.7652	1126.5124	1212.6391	1238.0647	1283.8438	1293.0714	1335.7201	1383.8223	1452.7482	1464.9863	1506.3524	1521.3521	2236.0805	2957.7855	2996.4938	3025.6163	3043.9028	3083.3323	3504.4646	3750.8711	3837.4036
OCC(CO)C#C	OCC(CO)C#C	
InChI=1S/C5H8O2/c1-2-5(3-6)4-7/h1,5-7H,3-4H2	InChI=1S/C5H8O2/c1-2-5(3-6)4-7/h1,5-7H,3-4H2
