9
gdb 60	9.08854	4.42607	3.03169	0.9461	36.51	-0.2538	-0.0964	0.1574	399.222	0.064992	-267.10335	-267.097658	-267.096714	-267.132534	17.806	
C	-0.4312606647	 1.3058666416	-0.127585854	-0.478601
C	 0.2528571518	-0.0102698834	 0.1313886667	 0.303736
O	 0.6987209906	-0.3689033322	 1.1960469017	-0.264348
C	 0.3897894266	-0.9677368037	-1.0622620808	 0.075714
O	-0.0161126781	-0.7156429312	-2.1658371812	-0.208638
H	 0.1000656459	 1.8532449012	-0.9133259691	 0.158933
H	-1.4427043315	 1.1306936121	-0.5092337059	 0.158933
H	-0.4675755362	 1.8954815782	 0.7883647941	 0.147007
H	 0.9032988555	-1.9155884527	-0.7953197215	 0.107264
73.1404	137.3459	244.269	470.0557	477.104	569.0241	779.1037	907.196	1007.143	1082.9012	1241.4121	1361.3588	1386.314	1453.1289	1460.6216	1810.8601	1824.5364	2925.0986	3046.9447	3106.9707	3163.448
CC(=O)C=O	CC(=O)C=O	
InChI=1S/C3H4O2/c1-3(5)2-4/h2H,1H3	InChI=1S/C3H4O2/c1-3(5)2-4/h2H,1H3
