15
gdb 387	6.74283	2.26803	1.90839	3.8246	55.18	-0.2407	0.0328	0.2735	680.8869	0.130695	-287.720383	-287.713033	-287.712089	-287.75175	24.851	
C	 0.1066769371	 1.523268566	 0.1379069883	-0.374903
C	-0.0614961699	 0.0182241234	-0.0960357	-0.155515
N	 0.6568623492	-0.4843271048	-1.2550556073	-0.026692
C	 2.1071865502	-0.5495019389	-1.2114475231	-0.345011
C	-0.0035466527	-0.9220727427	-2.3651387451	 0.154222
O	 0.5132852771	-1.356251242	-3.3735231479	-0.343916
H	 1.1515182059	 1.7895807814	 0.3214286824	 0.126637
H	-0.2431784772	 2.0922862574	-0.7286392255	 0.128574
H	-0.473499023	 1.8341210302	 1.0122472931	 0.122285
H	 0.2680530904	-0.53526479	 0.7941265528	 0.108969
H	-1.1218890665	-0.2153962705	-0.2384348081	 0.118105
H	 2.4387242762	-1.117142066	-0.3334985187	 0.121675
H	 2.4425317014	-1.0501093975	-2.1198407627	 0.169245
H	 2.5573711091	 0.4486835536	-1.1680537826	 0.127187
H	-1.1019274475	-0.8385908295	-2.2432422455	 0.06914
67.3612	119.872	174.8757	230.8253	325.362	336.7533	380.5365	431.0455	647.7815	793.6863	858.0681	966.9362	1028.724	1081.2039	1104.5377	1123.4819	1161.8496	1279.0802	1294.1193	1392.352	1409.4983	1433.6959	1439.4783	1444.5925	1484.1301	1489.5641	1500.8856	1508.5181	1522.8741	1795.2785	2931.251	3010.4753	3022.3905	3042.362	3070.977	3073.4503	3114.5909	3120.1831	3155.8508
CCN(C)C=O	CCN(C)C=O	
InChI=1S/C4H9NO/c1-3-5(2)4-6/h4H,3H2,1-2H3	InChI=1S/C4H9NO/c1-3-5(2)4-6/h4H,3H2,1-2H3
