14
gdb 3231	5.42525	2.69389	2.33684	3.4609	56.56	-0.2172	0.0596	0.2769	612.3895	0.112643	-324.471313	-324.465359	-324.464415	-324.500637	23.345	
C	-0.0354172432	 1.5388281048	 0.051810204	-0.511789
C	 0.091005851	 0.0498125052	 0.0246840394	 0.305202
N	-0.831873892	-0.8771140433	 0.7168714509	-0.346545
C	 0.6270829077	-0.9260651203	 1.0019966449	-0.163754
C	 1.3131371915	-1.7226098632	-0.1648841389	 0.028929
O	 0.3194720845	-2.1259812589	-1.1059307128	-0.210377
C	 0.7759280522	-0.775771198	-1.1397941276	-0.018476
H	 0.8926006314	 2.0193224016	-0.2783466173	 0.127125
H	-0.8406104109	 1.8815337631	-0.6089855306	 0.133272
H	-0.2539362811	 1.8968933762	 1.0636787402	 0.121002
H	-1.2526258894	-0.3460018167	 1.4811520705	 0.225832
H	 1.026181411	-0.7746398719	 1.9965118566	 0.095838
H	 2.2435068747	-2.2757642863	-0.1290341787	 0.108357
H	 1.1721368527	-0.3874838624	-2.0710571606	 0.105384
206.3541	229.3699	283.0114	420.3861	448.6175	563.4572	681.465	755.9501	792.4068	808.5818	842.1691	871.7629	889.4545	924.8713	986.6381	994.3807	1023.4996	1056.4186	1101.8315	1115.1645	1204.1822	1214.86	1280.2261	1320.3906	1364.4825	1411.4472	1443.3125	1481.6833	1497.501	3021.0553	3082.328	3093.8113	3179.7215	3195.2021	3204.1589	3454.5438
CC12NC1C1OC21	C[C@]12N[C@H]1[C@H]1O[C@@H]21	
InChI=1S/C5H7NO/c1-5-3(6-5)2-4(5)7-2/h2-4,6H,1H3	InChI=1S/C5H7NO/c1-5-3(6-5)2-4(5)7-2/h2-4,6H,1H3/t2-,3+,4-,5+/m1/s1
