10
gdb 3904	6.11904	2.84995	1.94436	1.0953	51.07	-0.2632	-0.0857	0.1775	584.2627	0.069139	-355.497046	-355.491966	-355.491022	-355.525927	18.61	
O	-0.042627538	-0.0914876864	 0.0033106508	-0.371592
C	 0.0378154683	 1.1183506289	 0.0087321454	 0.468206
N	-1.1231672102	 1.9221786724	 0.0282321589	-0.260143
N	-1.2252537966	 3.2565860078	 0.0366656135	-0.024283
N	-0.1570380792	 3.9533421207	 0.0263400118	-0.210839
C	 1.0619908178	 3.3026873779	 0.0068576852	 0.066561
C	 1.217580134	 1.9571113898	-0.0023396033	-0.240681
H	-2.0155785765	 1.4420424731	 0.0373902058	 0.286813
H	 1.9130294938	 3.9754122955	-0.0007581187	 0.14423
H	 2.1898307467	 1.4804416904	-0.0176632794	 0.141727
166.3734	354.162	442.4421	527.8093	549.5801	652.0038	771.2642	779.7228	839.2446	877.6404	1005.0573	1022.1628	1043.2926	1124.0047	1178.0512	1249.5599	1371.596	1433.3156	1526.9337	1619.6953	1818.3411	3193.7181	3222.3233	3580.1756
O=C1NN=NC=C1	O=C1N[N]N=C[CH]1	
InChI=1S/C3H3N3O/c7-3-1-2-4-6-5-3/h1-2H,(H,4,5,7)	InChI=1S/C3H3N3O/c7-3-1-2-4-6-5-3/h1-2H,(H,4,5,7)
