16
gdb 3554	4.927	2.9229	2.61882	1.64	63.05	-0.2338	0.0928	0.3265	607.3641	0.138387	-288.573876	-288.568129	-288.567184	-288.603011	23.037	
C	-0.0348127987	 1.5803180336	-0.013591236	-0.419319
C	 0.0769611238	 0.0682120892	-0.0816378129	 0.09987
C	 0.7487337889	-0.6728883011	-1.2601989207	-0.100084
C	 2.1853389907	-0.0866114709	-1.2980907942	-0.246286
C	 2.3438225486	-0.6904413908	 0.0959904176	-0.034264
C	 1.2594156581	-1.6695912466	-0.1469148566	-0.044218
N	 1.0444584771	-0.5977935493	 0.8619880821	-0.157989
H	 0.9264842176	 2.0777431634	-0.1626238967	 0.121417
H	-0.7330507407	 1.9487459747	-0.7735166499	 0.114769
H	-0.4145863178	 1.8811917631	 0.9681710468	 0.127491
H	-0.8994442968	-0.3833368937	 0.1269064878	 0.078853
H	 0.216515708	-0.9093472485	-2.1801138781	 0.068711
H	 2.8101019334	-0.6266856049	-2.0144898591	 0.105796
H	 2.3107026087	 0.9904599193	-1.4452244462	 0.094709
H	 3.2364567596	-0.7904370003	 0.6990187453	 0.095792
H	 1.1462578795	-2.7279049674	 0.046781461	 0.094751
184.1898	243.6105	297.5982	477.3927	562.8295	685.8298	716.1521	784.0051	798.7281	839.4244	879.065	916.4865	924.7398	968.9603	989.1326	1007.9326	1046.6405	1079.4941	1104.7641	1119.777	1132.4138	1162.4802	1170.7672	1211.7749	1244.1152	1274.3679	1288.5591	1341.5597	1392.7012	1411.8283	1485.9131	1491.8671	1513.1329	3036.1588	3042.9158	3051.3438	3101.8985	3102.5784	3123.0717	3128.2402	3197.873	3212.4688
CC1C2CC3C2N13	C[C@H]1[C@H]2C[C@@H]3[C@H]2N13	
InChI=1S/C6H9N/c1-3-4-2-5-6(4)7(3)5/h3-6H,2H2,1H3	InChI=1S/C6H9N/c1-3-4-2-5-6(4)7(3)5/h3-6H,2H2,1H3/t3-,4+,5+,6-,7?/m0/s1
