15
gdb 3580	4.73427	2.85835	2.4164	1.4934	59.63	-0.2047	0.0726	0.2773	610.6606	0.125533	-308.429953	-308.42401	-308.423066	-308.459223	23.944	
O	-0.0504198066	 1.4939601792	-0.1590243244	-0.41611
C	-0.1186409562	 0.1044952856	 0.0197586018	 0.092099
C	-0.4751030402	-0.6551213792	 1.2674320546	-0.130859
C	-1.6803052287	-0.1335704497	 2.0949318307	-0.060496
C	-2.3215265449	 1.1323138146	 1.5824326231	-0.297527
C	-2.5642421165	-0.1697600493	 0.8648203037	-0.052197
C	-1.3794132385	-0.6905958842	 0.0073878497	-0.094998
H	 0.695481239	 1.8151556768	 0.3600677596	 0.284568
H	 0.6657091522	-0.4245154774	-0.5298406497	 0.089969
H	 0.1729797914	-1.4368548505	 1.6465145745	 0.084324
H	-1.8950660136	-0.529595473	 3.078855096	 0.086225
H	-3.1687431209	 1.453282053	 2.1833744942	 0.102914
H	-1.7500149568	 1.9283951783	 1.1303173569	 0.137094
H	-3.5518097109	-0.6012825679	 0.7689014747	 0.086762
H	-1.5155244385	-1.5033522063	-0.6960432154	 0.088232
193.4662	264.7365	295.2956	396.6932	517.6701	638.5037	687.9037	697.0144	712.4678	768.0986	865.0372	903.8745	908.677	943.6897	978.2433	1003.5907	1027.3617	1035.2233	1055.9473	1078.1116	1094.5141	1127.8403	1187.2798	1235.4241	1266.727	1287.1988	1303.6686	1341.5525	1365.0337	1464.4538	1478.5157	3055.5861	3130.9252	3169.461	3179.995	3189.9343	3200.8496	3254.9411	3797.2039
OC1C2C3CC3C12	O[C@H]1[C@H]2[C@H]3C[C@H]3[C@@H]12	
InChI=1S/C6H8O/c7-6-4-2-1-3(2)5(4)6/h2-7H,1H2	InChI=1S/C6H8O/c7-6-4-2-1-3(2)5(4)6/h2-7H,1H2/t2-,3+,4-,5+,6-
