12
gdb 4375	4.21691	2.03393	1.37212	1.3867	58.64	-0.2528	-0.0229	0.2299	813.0326	0.087171	-410.926454	-410.919802	-410.918858	-410.957679	24.015	
N	-0.0406643393	 1.328442043	 0.0571607976	-0.551806
C	 0.0055742903	-0.0164864218	 0.0104864737	 0.460572
N	-1.1746220759	-0.6734390185	 0.0185126769	-0.319973
C	-1.0485313626	-1.991407673	-0.0292604667	 0.076876
N	 0.0883162286	-2.685160027	-0.0818468858	-0.364157
C	 1.1818924944	-1.9080896297	-0.0836185137	 0.448817
O	 2.3622385764	-2.5283121704	-0.1348255551	-0.383466
N	 1.2204287336	-0.5872573365	-0.0399512294	-0.34515
H	 0.8152050224	 1.853593238	 0.0527452053	 0.273465
H	-0.9314554025	 1.7897595649	 0.0953466029	 0.272866
H	-1.970296651	-2.5703662529	-0.0252213138	 0.124422
H	 2.1644469956	-3.4751331762	-0.1617512918	 0.307533
69.679	188.0164	203.2654	351.7575	470.7403	505.487	584.0586	589.9837	594.0395	611.9615	772.6589	844.2112	851.6208	988.9633	1004.1644	1026.6639	1094.973	1236.1485	1288.537	1374.2604	1374.7448	1481.8032	1525.5424	1589.2584	1643.7732	1662.5576	3155.9879	3632.4414	3772.9234	3773.337
NC1=NC=NC(O)=N1	Nc1ncnc(O)n1	
InChI=1S/C3H4N4O/c4-2-5-1-6-3(8)7-2/h1H,(H3,4,5,6,7,8)	InChI=1S/C3H4N4O/c4-2-5-1-6-3(8)7-2/h1H,(H3,4,5,6,7,8)
