14
gdb 1069	7.41932	2.02645	1.60798	2.4475	59.51	-0.1888	0.0518	0.2406	745.1256	0.114821	-324.595526	-324.588995	-324.588051	-324.625787	24.264	
C	 0.014066718	 1.3907864285	 0.007981056	-0.239807
O	 0.0243737754	-0.0211646993	 0.0028011455	-0.260776
C	-1.2005803976	-0.609656616	 0.0103260521	 0.357569
C	-2.4509899506	-0.0235542097	 0.0218612407	-0.222778
N	-3.3711192511	-1.0540656832	 0.0255955175	-0.245407
C	-2.7268031172	-2.2587631215	 0.0165879234	-0.05925
C	-1.3719807113	-2.0221578406	 0.0070147692	-0.271574
H	 1.0562609726	 1.7144394306	 0.0011869849	 0.128553
H	-0.4967862391	 1.7901502014	-0.8796840221	 0.113883
H	-0.4831916855	 1.7836776731	 0.9061844618	 0.113886
H	-2.7629709886	 1.0059878857	 0.0277591804	 0.112113
H	-4.3669740925	-0.9294945841	 0.0337113281	 0.259619
H	-3.2777988033	-3.185472686	 0.0177230798	 0.116988
H	-0.5828557991	-2.7567891489	-0.0014742872	 0.096982
100.0554	224.8936	243.2303	329.9309	391.3413	474.8426	620.8252	627.5889	661.5168	679.1781	743.7572	814.8122	896.2607	971.2393	1058.0544	1084.0246	1114.8398	1170.7886	1181.6616	1216.8996	1282.8796	1317.6086	1420.619	1466.9159	1483.8402	1485.0537	1509.6036	1535.4964	1622.3252	2989.6997	3041.5409	3130.4789	3254.332	3272.9829	3283.7809	3697.7908
COC1=CNC=C1	COc1c[nH]cc1	
InChI=1S/C5H7NO/c1-7-5-2-3-6-4-5/h2-4,6H,1H3	InChI=1S/C5H7NO/c1-7-5-2-3-6-4-5/h2-4,6H,1H3
