15
gdb 2674	17.85427	0.79445	0.77145	4.091	69.44	-0.2625	-0.0571	0.2054	1425.7222	0.122698	-308.505512	-308.496962	-308.496017	-308.540212	27.774	
C	 0.0012247356	 1.5673442953	 0.0104464621	-0.383475
C	 0.0150977762	 0.0378703586	 0.0020265857	-0.160456
C	-1.4091215996	-0.5551287579	 0.0126004183	-0.343106
C	-1.4386081348	-2.0092914574	 0.0049737105	 0.070438
C	-1.4547957137	-3.2177073701	-0.0013262853	 0.058542
C	-1.4362004687	-4.6562487748	-0.0091778251	 0.016918
O	-2.4214985624	-5.3589718008	-0.0038669427	-0.230685
H	 1.018339711	 1.9693949407	 0.0027646047	 0.120863
H	-0.521225571	 1.9650948474	-0.8665883876	 0.120025
H	-0.5040866528	 1.9555195597	 0.9016984638	 0.120025
H	 0.545148282	-0.3315303929	-0.882615071	 0.114694
H	 0.5621584707	-0.3410312476	 0.8721722755	 0.114693
H	-1.9547857816	-0.1944967579	 0.8952431143	 0.14304
H	-1.9717150082	-0.1849948733	-0.8553447031	 0.143035
H	-0.4170633128	-5.0948983989	-0.0208720702	 0.095449
18.8846	77.5209	78.3926	188.1944	190.7119	234.536	312.4153	410.1091	481.2784	604.3077	738.3719	826.304	865.8761	898.1695	1022.3956	1040.8444	1108.52	1116.3857	1159.2634	1255.5487	1302.5293	1321.6865	1380.769	1414.3003	1423.6169	1457.9131	1491.1379	1497.8721	1507.6198	1766.7881	2329.3079	2912.133	3014.0793	3031.8939	3042.2492	3045.0858	3077.4013	3103.3231	3110.4806
CCCC#CC=O	CCCC#CC=O	
InChI=1S/C6H8O/c1-2-3-4-5-6-7/h6H,2-3H2,1H3	InChI=1S/C6H8O/c1-2-3-4-5-6-7/h6H,2-3H2,1H3
