15
gdb 2714	4.51416	1.57202	1.24478	4.5915	55.47	-0.2703	0.015	0.2853	942.0323	0.123175	-382.798099	-382.790034	-382.78909	-382.831299	26.58	
C	 0.2827727622	 0.9436786804	 0.37536761	-0.231348
O	-0.022710774	-0.404732566	 0.0947506152	-0.233157
C	-1.4040344284	-0.6737850452	 0.0730798436	-0.053642
C	-1.582641469	-2.175985502	-0.0512696152	-0.101937
O	-1.1621474537	-2.8431044912	 1.1402823943	-0.180793
C	 0.1401346772	-3.1917453721	 1.2296310039	 0.179923
O	 0.606200567	-3.663113195	 2.2224415467	-0.279496
H	 1.3709913726	 1.0343913416	 0.3846742458	 0.136313
H	-0.1257654385	 1.620040189	-0.3910962978	 0.108483
H	-0.1104997947	 1.2521472367	 1.3555785716	 0.115475
H	-1.8896548136	-0.3209239281	 0.9968629047	 0.10763
H	-1.8954938882	-0.1737718327	-0.7792067241	 0.09385
H	-2.6378792428	-2.4248115081	-0.1856124871	 0.127745
H	-1.0207787713	-2.5463898791	-0.9176184404	 0.122717
H	 0.6992019551	-3.0097471483	 0.2947789886	 0.088239
60.5057	102.3515	116.8498	177.2295	227.1253	257.4296	359.1193	378.5924	532.1216	635.8573	855.848	929.006	1034.2715	1042.6141	1058.3268	1118.763	1156.3307	1178.5266	1189.47	1235.1306	1265.8768	1323.5635	1397.8072	1420.7866	1434.6576	1478.9132	1486.5776	1490.6636	1497.7299	1520.6132	1866.9599	2959.9689	2980.9045	2986.109	3001.5881	3029.3036	3041.3226	3114.3949	3124.3466
COCCOC=O	COCCOC=O	
InChI=1S/C4H8O3/c1-6-2-3-7-4-5/h4H,2-3H2,1H3	InChI=1S/C4H8O3/c1-6-2-3-7-4-5/h4H,2-3H2,1H3
