13
gdb 2890	6.40503	1.98794	1.72238	1.1623	55.09	-0.2631	0.0249	0.2881	714.7246	0.101781	-344.408081	-344.401586	-344.400642	-344.439015	23.077	
C	 0.0521760912	-1.2053181619	-0.1129712861	-0.469056
C	 0.0260371043	-0.0056948255	-0.0485170923	 0.336756
C	-0.0280972741	 1.4498894989	 0.0409412028	-0.07059
C	-0.597715256	 1.9563617331	 1.4040573155	-0.125415
O	 0.2632724949	 3.0267900936	 1.7451178444	-0.227522
C	 1.5136367072	 2.6386657843	 1.2380951114	 0.021306
O	 1.270962644	 2.0526275646	-0.0245639093	-0.24645
H	 0.0795394173	-2.2651576237	-0.1782487724	 0.205085
H	-0.6109400799	 1.8469098179	-0.7981132349	 0.118104
H	-1.6180633123	 2.3350316348	 1.3270657682	 0.128366
H	-0.55794019	 1.1542452774	 2.1532756536	 0.112748
H	 2.1411200898	 3.5241227592	 1.1085100655	 0.12547
H	 2.0027535338	 1.9131906971	 1.9129114337	 0.091199
52.2057	167.0201	236.9005	286.6143	498.63	524.0378	625.1992	669.5782	676.9565	739.2448	848.4241	960.3599	979.8558	1034.605	1051.7375	1094.5972	1108.7631	1182.4671	1214.4355	1265.1687	1303.1501	1347.6579	1370.6117	1426.0718	1511.5145	1541.0498	2237.6178	2942.7529	3016.385	3039.5357	3099.6421	3121.7622	3502.1726
C#CC1COCO1	C#C[C@H]1COCO1	
InChI=1S/C5H6O2/c1-2-5-3-6-4-7-5/h1,5H,3-4H2	InChI=1S/C5H6O2/c1-2-5-3-6-4-7-5/h1,5H,3-4H2/t5-/m0/s1
