17
gdb 4099	3.30102	1.8717	1.22122	0.9503	76.18	-0.2132	-0.019	0.1943	976.3459	0.142093	-363.848521	-363.840458	-363.839514	-363.881886	29.757	
C	-0.0403832395	 1.5570462918	-0.0412602754	-0.489169
C	-0.0119355269	 0.0575989725	 0.0021199475	 0.249968
C	-0.0279388443	-0.752843823	-1.0702506158	-0.137964
C	 0.0083690513	-2.2183061069	-0.7372075718	-0.272356
C	 0.0523672548	-2.2404818595	 0.8106867043	-0.288403
C	 0.0381077434	-0.7731723834	 1.2217820476	 0.320662
N	 0.0690059514	-0.4799184257	 2.4663408877	-0.244541
O	 0.0514178828	 0.9077707049	 2.7089509608	-0.400767
H	 0.8409336655	 1.9846209696	 0.4446156967	 0.13964
H	-0.0766574067	 1.9068995217	-1.0771238671	 0.107961
H	-0.9070996851	 1.9529096693	 0.495122215	 0.139621
H	-0.0637583719	-0.3940678265	-2.094241611	 0.095002
H	-0.8691223814	-2.7428261232	-1.1359823811	 0.112824
H	 0.8807987999	-2.7105549328	-1.1852190887	 0.112849
H	-0.8042732767	-2.7671825548	 1.2397103237	 0.125381
H	 0.9495400162	-2.7365527749	 1.1905236313	 0.125374
H	 0.078875027	 0.9383021508	 3.6705043763	 0.30392
18.4582	193.9152	219.6696	244.052	272.8793	320.6863	342.8347	415.1379	464.8849	639.0297	649.9015	723.2383	767.102	800.4912	863.9369	926.3461	973.6619	1002.8065	1029.643	1052.2677	1073.1385	1114.0405	1162.3705	1237.4524	1238.9405	1291.0755	1327.2828	1351.1453	1394.2344	1419.1241	1471.4775	1476.4325	1485.6552	1494.8152	1681.8306	1720.7299	3021.8835	3042.6121	3043.6718	3065.3105	3101.8168	3111.2841	3117.1255	3181.8553	3825.1959
CC1=CCCC1=NO	CC1=CCCC1=NO	
InChI=1S/C6H9NO/c1-5-3-2-4-6(5)7-8/h3,8H,2,4H2,1H3	InChI=1S/C6H9NO/c1-5-3-2-4-6(5)7-8/h3,8H,2,4H2,1H3
