17
gdb 1167	3.943	1.84396	1.74441	1.2828	65.86	-0.2602	0.0525	0.3127	820.2194	0.145036	-309.68579	-309.676922	-309.675978	-309.718145	32.249	
C	-0.0215502478	 1.5543631052	 0.0229791869	-0.402365
C	 0.0011971364	 0.0088950741	 0.0237710464	 0.069421
C	 0.7500919213	-0.5113198593	 1.2717833407	-0.40236
C	-1.4454169647	-0.5364460309	 0.0156036345	-0.079589
O	-2.10347835	-0.0755101021	 1.1852304449	-0.426224
C	 0.6625518018	-0.4781242497	-1.1904506766	 0.3279
C	 1.1978999516	-0.8816246373	-2.1887501493	-0.493897
H	 0.9960929734	 1.953364551	 0.0418213879	 0.117908
H	-0.519223304	 1.9352417754	-0.8736935996	 0.116376
H	-0.5622880561	 1.9153417313	 0.9006360928	 0.133085
H	 0.2254858545	-0.193329068	 2.1754747129	 0.133105
H	 0.8028099809	-1.6040021282	 1.2659787946	 0.116389
H	 1.7714619895	-0.1222905933	 1.2965821009	 0.117904
H	-1.9533392277	-0.186001254	-0.8950745737	 0.094644
H	-1.4118771101	-1.6354519403	-0.0191861301	 0.094642
H	-3.0028914473	-0.4141187455	 1.1780971631	 0.291022
H	 1.6766275885	-1.2345711684	-3.0683878062	 0.192038
125.376	150.6235	180.0119	200.8699	220.7473	244.0016	284.8842	357.4997	358.6312	475.4378	534.9385	551.6035	623.9239	637.9365	719.7494	890.91	931.2258	968.7573	977.3538	1048.9105	1078.0547	1184.4894	1194.3358	1232.0534	1285.2088	1293.8018	1390.5307	1406.3742	1454.3653	1481.4568	1487.1491	1495.2658	1507.8089	1521.202	2231.5045	2982.8359	3019.6532	3043.5465	3047.3857	3114.7154	3117.5918	3132.2823	3136.0734	3502.4218	3839.7402
CC(C)(CO)C#C	CC(C)(CO)C#C	
InChI=1S/C6H10O/c1-4-6(2,3)5-7/h1,7H,5H2,2-3H3	InChI=1S/C6H10O/c1-4-6(2,3)5-7/h1,7H,5H2,2-3H3
