12
gdb 4658	6.99243	1.27774	1.08033	5.872	63.73	-0.2144	-0.005	0.2094	985.2757	0.085579	-377.574025	-377.567142	-377.566197	-377.604991	25.526	
O	 0.1016521698	 1.3286230202	 0.1907060685	-0.429446
C	 0.0723140454	-0.0088148307	-0.0042628421	 0.420507
C	 0.0922615415	-0.8064503744	-1.1175321489	-0.419676
C	 0.0378365268	-2.1615653547	-0.636428149	 0.187576
C	-0.0128579503	-2.1217559839	 0.7413020994	-0.173863
N	 0.0091592121	-0.8013644164	 1.1107060408	-0.290726
C	 0.0358937245	-3.3337632797	-1.4299041131	 0.198166
N	 0.0348363198	-4.2861809198	-2.090180895	-0.352579
H	 0.1414050644	 1.7660822157	-0.6654964728	 0.315651
H	 0.1393002176	-0.4921464489	-2.147056684	 0.116825
H	-0.0615272379	-2.9155608579	 1.4664254762	 0.14845
H	-0.0163639536	-0.4463145594	 2.05146014	 0.279115
142.4216	155.748	244.3573	305.8938	403.9353	479.604	520.5716	534.5903	581.5466	646.0188	673.2553	710.966	729.2981	775.2638	983.2347	1011.3554	1130.8089	1160.8164	1189.243	1283.6679	1339.3405	1418.7335	1512.1941	1565.2391	1642.414	2342.7565	3268.2341	3289.4001	3678.6194	3845.48
OC1=CC(=CN1)C#N	Oc1cc(c[nH]1)C#N	
InChI=1S/C5H4N2O/c6-2-4-1-5(8)7-3-4/h1,3,7-8H	InChI=1S/C5H4N2O/c6-2-4-1-5(8)7-3-4/h1,3,7-8H
