11
gdb 4627	6.57841	1.40936	1.16069	4.0706	63.71	-0.2252	-0.0461	0.1791	923.1079	0.073685	-393.613934	-393.6074	-393.606456	-393.644737	23.849	
N	-0.0260338085	 1.2880656425	 0.0070653519	-0.593326
C	 0.0010578238	 0.0275920716	 0.0008572207	 0.469574
N	-1.1028907843	-0.8159943334	 0.002959727	-0.313784
C	-0.6985747898	-2.127340993	-0.0056923229	-0.160381
C	 0.6500009129	-2.1226151231	-0.0131107391	 0.230649
O	 1.1037607671	-0.8057553603	-0.0092886072	-0.241348
C	 1.5823671133	-3.1729233884	-0.0233388202	 0.227443
N	 2.3427145403	-4.0481819727	-0.0317799179	-0.3324
H	 0.9111959384	 1.6808498397	 0.0037175777	 0.240064
H	-2.0451625547	-0.4672002962	 0.0097375172	 0.291624
H	-1.3841527784	-2.9571645866	-0.0059085573	 0.181884
129.7054	158.6888	218.7855	409.8749	428.3099	502.5229	551.3371	582.3286	628.9119	717.0301	756.462	762.3581	822.1398	937.9398	964.4291	1035.8588	1102.2956	1206.8506	1294.1299	1349.8092	1430.6022	1668.793	1805.2549	2337.3382	3295.267	3550.5563	3696.2216
N=C1NC=C(O1)C#N	[NH][C@@H]1NC=C(O1)C#N	
InChI=1S/C4H3N3O/c5-1-3-2-7-4(6)8-3/h2H,(H2,6,7)	InChI=1S/C4H4N3O/c5-1-3-2-7-4(6)8-3/h2,4,6-7H/t4-/m1/s1
