15
gdb 3295	4.44392	2.76194	2.25387	1.077	55.82	-0.2468	0.0651	0.3119	631.1561	0.125748	-345.609374	-345.603122	-345.602178	-345.640064	23.498	
O	 0.3171323389	 1.2636293779	-0.4606673526	-0.426211
C	 0.0510072532	-0.052282349	-0.0460531544	 0.128542
C	 0.1701007838	-0.3905476867	 1.477292841	-0.278385
C	-1.3170082201	-0.7858208657	 1.4899586393	 0.118719
O	-2.1723330336	 0.3541674428	 1.7498770699	-0.299455
C	-2.462842169	 0.5142096235	 0.3387247215	-0.093107
C	-1.4363903863	-0.5520868513	-0.0442893519	-0.100797
H	-0.0604102386	 1.8666956244	 0.1884228316	 0.289151
H	 0.6846402888	-0.688654794	-0.6686736974	 0.094981
H	 0.8590930221	-1.2142379955	 1.6848107138	 0.105232
H	 0.4136527206	 0.4503751656	 2.1327191966	 0.107688
H	-1.637943157	-1.681259008	 2.0278550013	 0.076379
H	-3.501189007	 0.2405141558	 0.1123677972	 0.103263
H	-2.2824608307	 1.5356311219	-0.0191469571	 0.098219
H	-1.7138869652	-1.3039815316	-0.7813617688	 0.07578
37.7281	256.4044	319.3997	361.9017	410.135	532.8571	652.8726	751.8914	775.838	855.8961	912.4301	927.3367	981.3782	983.6226	1005.3011	1036.542	1061.4963	1105.3525	1141.0077	1154.2432	1184.176	1207.6216	1253.001	1270.8439	1286.6926	1308.0104	1329.3839	1360.8084	1433.9288	1455.0995	1528.6413	3009.8397	3049.7337	3052.8865	3077.2944	3078.3314	3113.0453	3124.023	3810.1133
OC1CC2OCC12	O[C@H]1C[C@H]2OC[C@@H]12	
InChI=1S/C5H8O2/c6-4-1-5-3(4)2-7-5/h3-6H,1-2H2	InChI=1S/C5H8O2/c6-4-1-5-3(4)2-7-5/h3-6H,1-2H2/t3-,4-,5+/m0/s1
