12
gdb 2118	3.73625	3.38927	1.82834	4.5026	52.59	-0.2588	-0.0695	0.1893	647.0257	0.090979	-360.539944	-360.533906	-360.532962	-360.570233	21.503	
N	-0.0632110405	 1.2982407004	-0.0273020099	-0.497214
C	-0.0093112641	 0.0413695535	 0.0715407521	 0.316115
O	 1.0824849565	-0.6958873052	 0.4035041261	-0.238676
C	 0.826049046	-2.1160880624	 0.2780992761	-0.097863
C	-0.6949834882	-2.2856684599	 0.2328096269	-0.343763
C	-1.1910213031	-0.8924042979	-0.1388027335	 0.329907
O	-2.2843600421	-0.5742265642	-0.5120064691	-0.268629
H	 0.849859556	 1.7179892024	 0.1623089364	 0.232826
H	 1.3051134268	-2.4688909877	-0.6413320558	 0.130082
H	 1.3020973109	-2.6055102817	 1.1293983018	 0.132996
H	-1.0421664487	-3.0371046498	-0.477887586	 0.149813
H	-1.1047817893	-2.5397670673	 1.2168567948	 0.154407
88.132	138.9146	331.6861	381.2259	522.0983	597.3957	639.7691	705.701	736.9959	840.3374	903.452	946.1504	1013.3148	1037.2558	1058.8538	1151.3866	1202.8254	1238.8537	1277.0591	1298.5665	1408.8036	1450.1978	1525.7198	1757.493	1867.0294	3050.6504	3056.9834	3113.7681	3130.0874	3464.326
N=C1OCCC1=O	[NH][C]1OCCC1=O	
InChI=1S/C4H5NO2/c5-4-3(6)1-2-7-4/h5H,1-2H2	InChI=1S/C4H5NO2/c5-4-3(6)1-2-7-4/h5H,1-2H2
