18
gdb 808	3.31007	1.92301	1.3919	0.6108	67.1	-0.2392	0.0153	0.2545	933.3907	0.158157	-326.949535	-326.940745	-326.939801	-326.982785	31.175	
C	 1.0875195817	 0.5149521206	-1.0655515795	-0.374341
C	 0.0388023095	 0.0070526299	-0.0576778609	-0.26318
C	 0.6820172964	-0.6004360257	 1.1660124416	 0.366211
C	 0.8166624807	-2.0991311863	 1.2732324284	-0.255248
C	-0.524065447	-2.8110617309	 1.5210441188	-0.378226
N	 1.1555846272	 0.0740803213	 2.1442357967	-0.175451
O	 0.9857987741	 1.4616316914	 1.9607885086	-0.402658
H	 1.7440304593	-0.2951479778	-1.3993945914	 0.115119
H	 0.5987751251	 0.9363020777	-1.9492532056	 0.11325
H	 1.7064513171	 1.2908842601	-0.6097800277	 0.141083
H	-0.5960692753	 0.8424657632	 0.2509082448	 0.127172
H	-0.602520313	-0.7384714679	-0.5383793572	 0.096803
H	 1.2636371204	-2.4816606521	 0.3454164611	 0.103544
H	 1.5111789788	-2.3244685787	 2.087032419	 0.117266
H	-0.9653737608	-2.4844666927	 2.4674751418	 0.128052
H	-1.2475138813	-2.6072289335	 0.7252110565	 0.119679
H	-0.3802894157	-3.8947270152	 1.5681689651	 0.116855
H	 1.3685818528	 1.8164361766	 2.7695212299	 0.304071
72.5685	80.4082	173.0153	204.6397	223.082	248.3894	328.2865	353.531	393.6308	429.0071	579.4437	676.7594	757.8919	788.6431	811.7803	941.0727	968.6769	1005.0705	1050.2916	1060.1528	1100.0595	1125.4451	1242.0519	1283.2488	1296.9326	1345.4854	1352.7777	1400.9162	1403.2641	1412.0449	1473.7836	1483.4114	1495.9869	1499.1067	1505.7878	1510.0399	1726.9091	3017.5547	3038.2678	3040.2439	3050.0015	3088.5292	3092.461	3107.9799	3109.9065	3115.5349	3133.0594	3825.6123
CCC(CC)=NO	CCC(=NO)CC	
InChI=1S/C5H11NO/c1-3-5(4-2)6-7/h7H,3-4H2,1-2H3	InChI=1S/C5H11NO/c1-3-5(4-2)6-7/h7H,3-4H2,1-2H3
