11
gdb 3831	5.88367	2.92093	1.95191	4.3351	56.67	-0.2322	-0.0466	0.1856	597.758	0.081931	-335.619981	-335.614602	-335.613658	-335.649265	19.72	
N	-0.1058665679	 1.313503809	 0.00857774	-0.52659
C	 0.0087294507	 0.0400476587	 0.0009450328	 0.318346
C	-1.2028397098	-0.7922453832	 0.0034132109	 0.025203
N	-1.2083189343	-2.0806046796	-0.0033717218	-0.173954
N	 0.0268299729	-2.6577723284	-0.0133720228	-0.22848
C	 1.1774034596	-1.9360120105	-0.0162230317	 0.12027
N	 1.238334402	-0.6511680097	-0.0098103855	-0.323619
H	 0.8283819447	 1.7302068699	 0.0055127567	 0.219932
H	-2.1692197409	-0.2986262292	 0.0114634605	 0.146716
H	 0.0253790832	-3.6643136843	-0.018802865	 0.282613
H	 2.09054754	-2.5307967128	-0.0246542941	 0.139562
100.0593	385.4365	429.9195	448.0561	553.1104	560.9619	666.1689	769.6966	832.745	909.3388	959.7875	977.4792	981.0621	1035.0529	1093.6726	1210.1873	1312.8668	1375.1504	1416.9814	1486.9637	1646.1158	1665.9606	1704.9115	3138.4232	3196.2204	3452.5121	3654.9097
N=C1C=NNC=N1	[NH]C1=NCNN=C1	
InChI=1S/C3H4N4/c4-3-1-6-7-2-5-3/h1-2H,(H2,4,5,7)	InChI=1S/C3H5N4/c4-3-1-6-7-2-5-3/h1,4,7H,2H2
