11
gdb 204	9.29377	3.53254	2.60086	1.3204	47.12	-0.2395	0.0074	0.2468	485.0096	0.086195	-285.326726	-285.321574	-285.32063	-285.355221	18.123	
C	-0.0115450038	 1.5002632076	 0.0434035852	-0.487794
C	 0.0026838551	 0.0110236792	-0.0272936283	 0.256376
C	-0.0774680933	-0.8100816436	-1.102477516	-0.107519
O	-0.0226615477	-2.1069819008	-0.6642472285	-0.138787
C	 0.0896683237	-1.9935324196	 0.6764717629	 0.076911
N	 0.1107441581	-0.7806298966	 1.1186867263	-0.298087
H	 0.9068365528	 1.8773315888	 0.5052723796	 0.140804
H	-0.1019742959	 1.9406459979	-0.9528066151	 0.124262
H	-0.8489191874	 1.8534988807	 0.6541083353	 0.140802
H	-0.1696517169	-0.6658941423	-2.1650236938	 0.143671
H	 0.1497966653	-2.9130275314	 1.2375538624	 0.149362
130.6225	271.7056	332.0305	636.9156	662.5923	679.3583	760.3814	848.296	936.1028	971.3869	1022.7021	1068.3033	1096.8356	1135.9237	1250.8482	1279.782	1342.6593	1418.4423	1475.2758	1489.8123	1559.5372	1638.547	3039.5695	3096.3897	3122.5747	3274.3027	3294.3304
CC1=COC=N1	Cc1cocn1	
InChI=1S/C4H5NO/c1-4-2-6-3-5-4/h2-3H,1H3	InChI=1S/C4H5NO/c1-4-2-6-3-5-4/h2-3H,1H3
