12
gdb 154	13.52261	3.29848	2.97514	2.9395	42.64	-0.2436	0.0677	0.3113	445.0397	0.103108	-248.364357	-248.358808	-248.357864	-248.392932	19.038	
O	-0.0254570301	 1.2789874028	 0.4623293155	-0.416367
C	 0.0003579821	-0.0085628788	-0.1361736708	-0.098887
C	-1.3946157441	-0.5711882844	-0.1118587242	 0.050615
C	-1.5889895139	-2.0351274963	 0.0324216028	-0.246513
N	-1.9497013334	-1.1251108799	 1.1305140799	-0.303774
H	 0.8401644492	 1.6816930883	 0.3462455575	 0.288059
H	 0.3558776712	 0.0427862923	-1.178085656	 0.092193
H	 0.6765178497	-0.6908748039	 0.4080094583	 0.07597
H	-2.1163139088	 0.0001380094	-0.6917138281	 0.099123
H	-2.4276342037	-2.5236082069	-0.4550515016	 0.120109
H	-0.7035636032	-2.6585481978	 0.1351985964	 0.107846
H	-1.2303073851	-1.1387425849	 1.8501580003	 0.231624
101.6107	245.6796	258.5862	389.5027	496.0898	788.1371	835.2292	930.7687	941.8684	1004.7162	1044.6708	1075.4529	1119.6227	1152.9003	1209.3644	1241.6235	1252.5731	1284.3027	1312.4228	1395.5611	1472.1171	1508.611	1514.1813	2947.6886	2985.3971	3104.6703	3135.4452	3189.9119	3492.7683	3827.6562
OCC1CN1	OC[C@H]1CN1	
InChI=1S/C3H7NO/c5-2-3-1-4-3/h3-5H,1-2H2	InChI=1S/C3H7NO/c5-2-3-1-4-3/h3-5H,1-2H2/t3-/m1/s1
