13
gdb 4406	3.7962	1.99676	1.31037	5.7156	66.55	-0.2095	-0.0439	0.1656	856.254	0.098145	-394.838866	-394.832277	-394.831333	-394.869409	25.365	
N	 0.0447847441	 1.3988953202	 0.1771850448	-0.57894
C	-0.0347280811	 0.0246299912	 0.0565419106	 0.409203
C	-1.2047473733	-0.698065958	 0.0206444629	-0.115721
N	-1.200573938	-2.0544666528	-0.0187897501	-0.208172
C	-0.0739599919	-2.7072529119	-0.0410414492	-0.121227
C	 1.2387000396	-2.075919653	-0.0160591932	 0.379949
O	 2.3292343632	-2.6170518672	-0.0280326516	-0.391194
N	 1.1389151962	-0.668129795	 0.0359060579	-0.387609
H	 0.8070581898	 1.842687406	-0.3169972882	 0.260196
H	-0.8308558862	 1.8766007551	 0.0207977246	 0.269015
H	-2.1648530095	-0.1955526163	 0.0247657525	 0.100693
H	-0.0912133444	-3.7925708974	-0.0760165933	 0.125407
H	 2.0246936814	-0.184386361	 0.1109791222	 0.258399
170.9869	210.3959	276.8399	330.2296	458.1482	489.9305	535.6315	563.0226	592.7685	651.5551	710.2967	733.7283	764.5244	811.1526	904.7815	949.9196	1047.7207	1107.8145	1153.7128	1221.1476	1300.7026	1351.2261	1410.552	1500.4682	1578.6297	1630.3364	1665.2003	1786.7471	3176.0316	3191.3723	3557.9598	3586.7694	3660.2024
NC1=CN=CC(=O)N1	Nc1cncc(=O)[nH]1	
InChI=1S/C4H5N3O/c5-3-1-6-2-4(8)7-3/h1-2H,(H3,5,7,8)	InChI=1S/C4H5N3O/c5-3-1-6-2-4(8)7-3/h1-2H,(H3,5,7,8)
