12
gdb 807	3.61016	2.25874	1.4015	1.7906	57.99	-0.237	-0.0314	0.2056	796.2944	0.086869	-360.421732	-360.413882	-360.412938	-360.453809	27.341	
O	 0.807666851	-0.4225959879	-0.5236434309	-0.412419
C	-0.1871556941	 0.3950051129	 0.0500631733	-0.16117
C	-1.4998718893	-0.3604006032	 0.09146851	 0.17613
N	-2.5804241879	 0.1519831295	 0.5689062171	-0.166863
O	-2.3481955585	 1.4541457629	 1.0183730454	-0.39075
C	-1.5790974943	-1.689278816	-0.4078799954	 0.330827
C	-1.6320074949	-2.8131640574	-0.83358457	-0.431362
H	 1.6283882639	 0.0777020773	-0.5376473908	 0.293422
H	 0.0587310554	 0.700096287	 1.0791826309	 0.122298
H	-0.3501955252	 1.3237600927	-0.5186158617	 0.1223
H	-3.2156880961	 1.7167969433	 1.3441658631	 0.315764
H	-1.67859751	-3.8052922711	-1.209353911	 0.201823
71.0773	150.9126	189.0521	214.4782	232.2268	369.3603	385.3554	473.2059	562.2291	564.2221	604.0249	619.0039	660.231	761.8877	1006.4137	1027.4865	1119.9015	1196.804	1248.0204	1281.7526	1400.0956	1449.2582	1497.2188	1670.8377	2232.8314	2978.9137	3001.5518	3504.4103	3819.4053	3839.0229
OCC(=NO)C#C	OCC(=NO)C#C	
InChI=1S/C4H5NO2/c1-2-4(3-6)5-7/h1,6-7H,3H2	InChI=1S/C4H5NO2/c1-2-4(3-6)5-7/h1,6-7H,3H2
