14
gdb 4744	7.12441	1.26208	1.07357	3.7217	71.84	-0.1972	-0.0403	0.1569	1027.7607	0.108962	-378.771882	-378.764602	-378.763658	-378.803302	26.993	
N	-0.0340075091	 1.4455057958	 0.1545919898	-0.605576
C	 0.0107545466	 0.046053425	 0.0458634272	 0.269122
C	-1.0834668739	-0.8169482926	 0.0232003917	-0.12983
N	-0.6145534397	-2.0955837946	-0.0062981277	-0.286672
C	 0.7546327836	-2.0913511087	-0.0057563169	 0.2473
C	 1.4865050101	-3.3343506565	-0.0409901812	 0.070454
O	 0.9559891616	-4.431931211	-0.0737786595	-0.324782
C	 1.1691654594	-0.7613532835	 0.0281339574	-0.302516
H	 0.7683839207	 1.893103312	-0.2683841448	 0.245318
H	-0.8778202514	 1.8458910686	-0.2339832607	 0.242571
H	-2.1401892443	-0.6006102222	 0.0321443359	 0.12209
H	-1.1488683595	-2.9485606639	-0.0327079646	 0.277646
H	 2.5909705876	-3.2228349747	-0.0364476314	 0.07261
H	 2.1945761882	-0.4222489237	 0.0427267847	 0.102266
118.3203	170.7486	175.5072	291.6177	329.2039	360.1284	494.3254	564.9904	632.6562	663.3694	682.2989	726.2526	757.8565	787.3098	813.9638	990.9523	1009.1587	1022.9631	1097.0775	1129.39	1191.5886	1297.4284	1373.7644	1390.6152	1453.6631	1479.5157	1536.2285	1625.9442	1659.4261	1752.5557	2911.6083	3242.364	3258.2231	3541.574	3630.2137	3666.1839
NC1=CNC(C=O)=C1	Nc1c[nH]c(C=O)c1	
InChI=1S/C5H6N2O/c6-4-1-5(3-8)7-2-4/h1-3,7H,6H2	InChI=1S/C5H6N2O/c6-4-1-5(3-8)7-2-4/h1-3,7H,6H2
