16
gdb 4136	5.4415	1.3026	1.26087	0.3516	70.3	-0.2309	0.0224	0.2533	1002.9025	0.130468	-379.795581	-379.788129	-379.787185	-379.8271	28.317	
C	-0.0867661382	 1.5545558193	 0.0138744661	-0.435248
C	-0.0077666336	 0.0373945574	 0.0109528337	 0.060022
C	 1.225461949	-0.668065304	-0.6527923068	-0.135843
N	 2.0518326078	-0.1437708305	 0.5317608597	-0.323688
C	 0.7651304185	-0.6984686121	 1.1590439556	-0.128703
C	 0.8976069201	-1.8742998226	 0.2148685837	 0.498201
N	 0.8839006344	-3.1330263311	 0.2835088277	-0.326657
O	 1.2064901027	-3.7121700447	-0.9711997767	-0.404308
H	 0.8765837576	 1.9996276773	 0.2650266825	 0.146674
H	-0.3977459548	 1.9205241158	-0.9703926154	 0.117646
H	-0.8317586653	 1.8948676396	 0.7409818609	 0.117212
H	-0.9654958297	-0.4262466201	-0.2387184168	 0.087416
H	 1.5813299357	-0.6149521387	-1.6791861793	 0.101761
H	 2.8241860591	-0.7898143482	 0.7181582116	 0.224076
H	 0.587296545	-0.679653173	 2.2328434726	 0.096133
H	 1.1461119118	-4.6525777344	-0.772585519	 0.305308
118.9093	167.7034	209.8587	290.3987	308.9371	338.3534	399.7734	485.2824	616.7331	718.7238	738.6872	764.0983	788.5322	801.7513	869.6594	942.4814	1025.5073	1047.2223	1060.0554	1092.3291	1110.51	1131.2097	1147.9413	1193.9009	1214.0548	1225.8502	1275.3229	1279.7778	1393.7542	1403.7945	1412.6192	1491.859	1504.7301	1815.4592	3039.2217	3081.4884	3095.7104	3140.5194	3147.939	3151.4664	3406.7786	3820.0435
CC1C2NC1C2=NO	C[C@H]1[C@H]2N[C@@H]1C2=NO	
InChI=1S/C5H8N2O/c1-2-3-5(7-8)4(2)6-3/h2-4,6,8H,1H3	InChI=1S/C5H8N2O/c1-2-3-5(7-8)4(2)6-3/h2-4,6,8H,1H3/t2-,3+,4-
