15
gdb 3481	5.85265	2.84706	2.68836	0.2077	63.53	-0.2171	0.0878	0.3049	587.1699	0.125013	-271.272557	-271.266916	-271.265972	-271.301452	22.831	
C	-0.0209011417	 1.5018165359	 0.0364738349	-0.524145
C	 0.0059573734	 0.0105640829	-0.0115943003	 0.364604
C	 0.2928149091	-0.9909320215	-1.1806331459	-0.152194
C	-0.6311897458	-2.0125112125	-0.5346237708	-0.082512
C	 0.8494952783	-1.9971632572	-0.1844686128	-0.082512
C	 0.5661950859	-1.0030475446	 0.9801399513	-0.143873
C	-0.9190427031	-1.0184715841	 0.6289323001	-0.143872
H	 0.9499714565	 1.931566914	-0.2384047014	 0.119657
H	-0.7741273745	 1.9136554337	-0.6460772916	 0.119658
H	-0.263381352	 1.8508615703	 1.0466181649	 0.119866
H	 0.5381292504	-0.8438224422	-2.2244309592	 0.080895
H	-1.2232093874	-2.79248323	-0.9943057428	 0.082803
H	 1.5998803298	-2.7632213264	-0.3266954062	 0.082803
H	 1.045348346	-0.836015018	 1.9361630354	 0.079412
H	-1.778787345	-0.8653436305	 1.2683529044	 0.079412
216.4804	244.4435	274.6359	573.9518	651.3677	749.0085	758.9646	780.3174	781.6553	845.5114	847.4593	865.3346	867.4421	932.4328	954.3642	975.4256	986.304	1006.3414	1017.6182	1084.646	1100.7811	1154.106	1172.0515	1196.8531	1262.9362	1270.0303	1323.8076	1405.7263	1437.4143	1480.619	1497.923	3015.0834	3072.7693	3086.9148	3184.2808	3189.7873	3198.5727	3199.9883	3211.1338
CC12C3C4C3C1C24	C[C@@]12[C@@H]3[C@H]4[C@@H]3[C@@H]1[C@@H]24	
InChI=1S/C7H8/c1-7-4-2-3(4)6(7)5(2)7/h2-6H,1H3	InChI=1S/C7H8/c1-7-4-2-3(4)6(7)5(2)7/h2-6H,1H3/t2-,3+,4-,5+,6-,7+
