15
gdb 2374	4.71503	2.07231	1.76569	3.2276	58.7	-0.2418	-0.0222	0.2196	754.2813	0.123643	-345.663783	-345.656536	-345.655591	-345.695086	26.572	
C	-0.0029031408	 1.4412268576	 0.0181423562	-0.482587
C	 0.0211782018	-0.0708138143	-0.0396801283	 0.417559
O	 1.0784029162	-0.6889893718	-0.0578008432	-0.36801
C	-1.2797104267	-0.7690501169	-0.038153633	-0.191118
C	-1.3844047831	-2.0978762599	-0.8028967659	-0.32255
C	-1.3135307857	-2.1482298718	 0.6761488466	 0.158591
O	-0.211471064	-2.6192235802	 1.3544676382	-0.417755
H	 1.0152691294	 1.8308116224	 0.0386697264	 0.144175
H	-0.5380703151	 1.8448727538	-0.8488594857	 0.14304
H	-0.5454679823	 1.7748436534	 0.9100313766	 0.145531
H	-2.1677055999	-0.1496798329	 0.0175345248	 0.091975
H	-2.3261930439	-2.2972973716	-1.3019573628	 0.122223
H	-0.4926141881	-2.386163115	-1.3497936208	 0.137735
H	-2.22542511	-2.3543639211	 1.2273968419	 0.116032
H	 0.5725108324	-2.2433001918	 0.9156769989	 0.305158
85.7282	126.3969	217.3315	240.5706	346.9493	446.8436	463.5872	584.3531	609.8329	656.5306	727.6477	775.5313	838.3131	912.1189	957.6651	1022.5583	1051.2684	1060.475	1085.3299	1114.4033	1143.4422	1198.6518	1235.9984	1359.4553	1375.9148	1407.9634	1451.3514	1462.7689	1474.461	1489.4655	1742.6238	3035.9269	3096.2798	3132.0711	3154.6588	3166.0029	3174.6238	3228.4052	3619.6159
CC(=O)C1CC1O	CC(=O)[C@H]1C[C@H]1O	
InChI=1S/C5H8O2/c1-3(6)4-2-5(4)7/h4-5,7H,2H2,1H3	InChI=1S/C5H8O2/c1-3(6)4-2-5(4)7/h4-5,7H,2H2,1H3/t4-,5-/m1/s1
