18
gdb 545	16.48602	1.20376	1.16243	1.0198	61.48	-0.2496	0.0912	0.3409	1051.6942	0.164797	-272.83072	-272.822537	-272.821593	-272.863117	27.616	
C	-0.0204726277	 1.5515369994	 0.0128336095	-0.378579
C	 0.0114906788	 0.0209289315	-0.0141396638	-0.165164
C	 0.7162797094	-0.5386551158	-1.25383066	-0.176674
C	 0.7478240622	-2.0602723941	-1.2806508568	-0.047712
O	 1.4128569212	-2.481998653	-2.4520519026	-0.230315
C	 1.4906687113	-3.8808269439	-2.5637774729	-0.226162
H	 0.9927816571	 1.9681051802	 0.0059846788	 0.115242
H	-0.5467210967	 1.9512479698	-0.8609784941	 0.115243
H	-0.5284254136	 1.9246581734	 0.907576064	 0.110748
H	 0.5128029604	-0.3498318211	 0.8898149357	 0.095561
H	-1.0151262243	-0.3665477866	 0.0287085931	 0.095557
H	 0.2164434141	-0.1834786588	-2.1634761534	 0.103212
H	 1.7473463649	-0.1669574547	-1.3005488037	 0.103218
H	 1.2649449425	-2.4501762535	-0.385534284	 0.080303
H	-0.2791928894	-2.4668501261	-1.2561807181	 0.080304
H	 2.0450672716	-4.3303609594	-1.7237613456	 0.100379
H	 0.492332728	-4.34681783	-2.5989687809	 0.100379
H	 2.0174389205	-4.1080920172	-3.4940546252	 0.124459
76.0032	106.8247	137.5189	140.8053	235.28	250.5094	312.3097	380.7101	488.7458	745.4329	816.526	904.9213	954.8641	984.8694	1032.7906	1071.5334	1130.8404	1167.6653	1174.92	1204.7873	1229.8142	1253.7953	1299.6899	1312.6978	1326.549	1389.7401	1411.8929	1428.9548	1482.4196	1485.6567	1488.7017	1496.0806	1499.1012	1504.5418	1512.626	1533.4137	2936.4977	2960.98	2964.686	3004.5123	3013.2959	3028.3994	3032.5763	3039.1475	3073.2101	3097.9571	3102.4692	3110.2541
CCCCOC	CCCCOC	
InChI=1S/C5H12O/c1-3-4-5-6-2/h3-5H2,1-2H3	InChI=1S/C5H12O/c1-3-4-5-6-2/h3-5H2,1-2H3
