15
gdb 4770	4.59276	1.45133	1.11813	2.7234	63.55	-0.2389	0.0026	0.2415	1028.7965	0.118691	-399.835056	-399.827124	-399.82618	-399.868005	27.701	
C	-0.3273725532	 1.3827233188	 0.1321720115	-0.491053
C	-0.0923005906	-0.0826602001	-0.0040216582	 0.256176
C	 0.3573520302	-0.7981508647	-1.0610911755	-0.124426
O	 0.4066350335	-2.124944941	-0.7010715636	-0.175441
C	-0.023430793	-2.1370632012	 0.5756453472	 0.365344
C	-0.1094306431	-3.4290204664	 1.3241754198	-0.139278
O	-0.5802435753	-3.2179716388	 2.6309371776	-0.421143
N	-0.3328611251	-0.9728635943	 1.0470292092	-0.373521
H	 0.2825626388	 1.8022533809	 0.9390328965	 0.141984
H	-0.0809637183	 1.9074383595	-0.7941957506	 0.12736
H	-1.3745570592	 1.588667384	 0.3772396893	 0.141986
H	 0.6660336627	-0.5615764255	-2.0644413396	 0.147138
H	-0.7736813264	-4.11839061	 0.7797968158	 0.121722
H	 0.8846358714	-3.9027906292	 1.3420913127	 0.121622
H	-0.7316835126	-2.2668201422	 2.7203427376	 0.301529
50.745	134.327	174.847	175.9401	245.6586	322.1732	343.9597	467.317	632.3903	638.9543	690.5594	748.9381	762.1304	981.4747	1017.5302	1031.9	1043.7445	1068.2691	1101.6386	1124.337	1220.4212	1241.029	1274.2979	1324.8022	1364.4747	1419.8717	1475.3443	1478.7718	1491.3794	1512.8327	1618.9677	1644.9701	2982.7349	2997.4045	3039.3959	3095.8263	3124.1909	3295.7392	3740.033
CC1=COC(CO)=N1	Cc1coc(CO)n1	
InChI=1S/C5H7NO2/c1-4-3-8-5(2-7)6-4/h3,7H,2H2,1H3	InChI=1S/C5H7NO2/c1-4-3-8-5(2-7)6-4/h3,7H,2H2,1H3
