18
gdb 1175	3.79027	1.82065	1.7122	4.0456	67.68	-0.3113	0.0438	0.3551	852.1125	0.158537	-289.87152	-289.862881	-289.861937	-289.903922	31.282	
C	 0.1263284403	 1.5587016025	 0.0092206903	-0.409657
C	-0.0127364907	 0.0335824317	 0.0022746435	-0.177634
C	-1.4738570343	-0.5073187151	 0.0133830924	 0.090467
C	-2.2321647032	-0.0806996893	 1.2905463853	-0.405393
C	-2.256488474	-0.0671120409	-1.2443394527	-0.405398
C	-1.3859531643	-1.9787151796	 0.0045923206	 0.268068
N	-1.3121460077	-3.1324882889	-0.0018910445	-0.344988
H	 1.1859642461	 1.8309336973	 0.0008852466	 0.125351
H	-0.3345042576	 2.0196570211	-0.8691644046	 0.124033
H	-0.318121219	 2.0101250144	 0.9009031538	 0.124031
H	 0.4912872011	-0.373823189	-0.8813402753	 0.115245
H	 0.5081028573	-0.3833251472	 0.8715914017	 0.115252
H	-2.3642381236	 1.0042147193	 1.3064905565	 0.124617
H	-3.2222697914	-0.5428589426	 1.3244806494	 0.133914
H	-1.686742958	-0.3777670227	 2.1906144143	 0.131788
H	-1.7283787688	-0.3542844198	-2.1578446276	 0.131778
H	-3.247045007	-0.529115763	-1.2643259568	 0.133915
H	-2.3888630852	 1.0178788718	-1.2459749928	 0.12461
81.2947	160.0603	187.1456	205.3439	265.2299	274.5168	291.6296	358.2904	359.7831	433.8625	569.9412	584.0703	689.559	785.1996	859.9967	934.0603	947.7665	1008.105	1027.144	1064.0538	1081.8418	1210.8431	1222.0673	1239.6308	1327.6943	1371.8123	1399.6691	1411.2789	1426.0896	1481.8383	1482.2315	1486.8961	1504.0704	1507.0395	1508.2429	1513.0052	2350.6247	3037.49	3045.1141	3045.3996	3050.4434	3073.6077	3110.2686	3116.8198	3121.6414	3123.4995	3125.6157	3127.7555
CCC(C)(C)C#N	CCC(C)(C)C#N	
InChI=1S/C6H11N/c1-4-6(2,3)5-7/h4H2,1-3H3	InChI=1S/C6H11N/c1-4-6(2,3)5-7/h4H2,1-3H3
