15
gdb 2924	6.71199	2.02917	1.6164	1.5234	58.36	-0.214	0.0625	0.2764	766.7454	0.127355	-341.849127	-341.842318	-341.841373	-341.879953	24.183	
C	 0.0063812662	 1.3597536423	-0.0477426548	-0.232219
O	-0.04646696	-0.0618751258	 0.0983779056	-0.260879
C	-1.2748504943	-0.5836491594	 0.1076892624	 0.482264
N	-2.3740742442	 0.0558689451	-0.00977671	-0.366282
C	-3.427606173	-0.9660960075	 0.0832971086	-0.152498
C	-2.7023337201	-2.335669187	-0.0665978726	-0.180476
N	-1.3308392097	-1.9592682252	 0.2997728123	-0.36184
H	 1.0656973718	 1.6189084602	-0.0446871814	 0.127313
H	-0.4631795973	 1.6682441094	-0.9856592418	 0.13945
H	-0.5125397774	 1.8502019132	 0.7799566239	 0.141269
H	-3.9279141852	-0.8938931966	 1.0584557899	 0.105861
H	-4.1920972472	-0.8149186859	-0.6843713433	 0.105739
H	-3.0980051569	-3.1085253903	 0.5975234498	 0.110398
H	-2.7571064064	-2.7065936737	-1.0999102224	 0.100232
H	-0.5654853864	-2.495012509	-0.0844851463	 0.241668
120.6295	142.063	187.0218	245.0615	288.404	493.4993	551.329	703.3157	711.585	760.3833	869.6673	917.2105	989.855	1032.6695	1054.1589	1101.3207	1117.5101	1183.7864	1209.2102	1222.3197	1242.7006	1303.4107	1315.4559	1357.3907	1451.6614	1476.51	1493.8786	1502.4202	1510.4703	1534.641	1720.2416	2998.745	3012.9806	3048.0188	3072.9959	3086.5834	3122.2164	3152.58	3598.5823
COC1=NCCN1	CO[C]1[N]CCN1	
InChI=1S/C4H8N2O/c1-7-4-5-2-3-6-4/h2-3H2,1H3,(H,5,6)	InChI=1S/C4H8N2O/c1-7-4-5-2-3-6-4/h2-3H2,1H3,(H,5,6)
