17
gdb 1100	3.2778	2.35057	1.96982	2.5591	60.44	-0.2405	-0.0104	0.2301	764.3556	0.144105	-346.883049	-346.874108	-346.873164	-346.91654	31.978	
C	 0.3896464473	 1.4394442094	 0.0407755311	-0.473483
C	-0.1307184574	 0.0210114195	-0.0015591246	 0.385218
O	-0.6041208983	-0.5300656885	 0.9662711635	-0.323119
C	-0.0486166783	-0.7440518373	-1.340740788	 0.250074
C	 0.8268464439	-1.9896188921	-1.1349278985	-0.41094
C	-1.4734771555	-1.1272998633	-1.7686461147	-0.41095
O	 0.5445536818	 0.1379517775	-2.2936713084	-0.46495
H	 1.4429743122	 1.4630722545	-0.2552752827	 0.148723
H	-0.140060191	 2.0568141616	-0.6913255311	 0.148729
H	 0.2636303009	 1.84191004	 1.0462460799	 0.131042
H	 0.4288839195	-2.6033317237	-0.3238766381	 0.14321
H	 0.8507699021	-2.5912284151	-2.0508451087	 0.103492
H	 1.8523830121	-1.7001387463	-0.8877364913	 0.123191
H	-2.0676069232	-0.2306449941	-1.9677615822	 0.123191
H	-1.4448231087	-1.7307780676	-2.683197345	 0.103489
H	-1.9627789187	-1.7066859885	-0.9826979352	 0.143216
H	 0.6000006712	-0.330471446	-3.132734666	 0.279865
22.0914	167.871	217.0731	236.5226	243.4024	250.619	280.2959	319.2405	366.1378	425.5856	485.5273	548.3362	602.0878	680.4553	847.8066	924.8677	959.9882	988.6596	989.1241	1047.0886	1130.3949	1190.6525	1192.8772	1223.3985	1369.4379	1382.3727	1384.5681	1406.6541	1454.3448	1462.7892	1477.7295	1483.4509	1496.0336	1512.0603	1807.7318	3029.8863	3034.5349	3049.3058	3101.0542	3104.6038	3111.7892	3133.5051	3138.1575	3158.6344	3816.1504
CC(=O)C(C)(C)O	CC(=O)C(C)(C)O	
InChI=1S/C5H10O2/c1-4(6)5(2,3)7/h7H,1-3H3	InChI=1S/C5H10O2/c1-4(6)5(2,3)7/h7H,1-3H3
