14
gdb 3006	7.37301	1.55423	1.4241	1.9444	55.35	-0.2666	-0.0386	0.228	838.978	0.113153	-361.698233	-361.691131	-361.690186	-361.729684	24.989	
O	 0.1030003976	 1.420277024	-0.2063410693	-0.418468
C	 0.0536331868	 0.0343893496	-0.3501631352	-0.134459
C	-1.2321204799	-0.5410941601	 0.2160285954	 0.357857
O	-2.0799710413	 0.2086519046	 0.6670422902	-0.354108
C	-1.4165797572	-2.0164672597	 0.1929591533	-0.105657
C	-1.932087604	-2.642465764	 1.4567510867	-0.215081
N	-2.7913626509	-2.5346952407	 0.2897148635	-0.298887
H	-0.748882945	 1.6650091202	 0.1890082702	 0.296225
H	 0.1162786113	-0.2683065323	-1.410405464	 0.121578
H	 0.9040753831	-0.4529522635	 0.1556081909	 0.121916
H	-0.7433175299	-2.5846893822	-0.4422104721	 0.106266
H	-1.6025029081	-3.6465930741	 1.7065578911	 0.133184
H	-2.1040620345	-1.9757784243	 2.2969482118	 0.137651
H	-3.405498538	-1.7282466075	 0.4087652775	 0.251984
75.9386	123.7143	199.3365	263.8916	332.1749	393.6318	415.7913	574.9596	688.6058	821.0847	858.7158	893.9085	955.4295	995.282	1034.0308	1079.0836	1122.9559	1135.0593	1159.2831	1183.1477	1241.7449	1288.1625	1307.0919	1321.6166	1405.1615	1453.9078	1489.553	1498.9697	1770.341	2961.0937	2983.1866	3116.008	3156.7082	3210.8261	3467.8389	3690.0353
OCC(=O)C1CN1	OCC(=O)[C@H]1CN1	
InChI=1S/C4H7NO2/c6-2-4(7)3-1-5-3/h3,5-6H,1-2H2	InChI=1S/C4H7NO2/c6-2-4(7)3-1-5-3/h3,5-6H,1-2H2/t3-/m1/s1
