17
gdb 2375	4.36265	1.92767	1.74273	2.5973	65.59	-0.2399	-0.0096	0.2303	815.6819	0.146894	-309.736982	-309.729082	-309.728138	-309.769021	28.531	
C	-0.1991772214	 1.5531710288	 0.0148702273	-0.417023
C	-0.0255727333	 0.0522481167	 0.0644194337	 0.016746
C	 1.2745399869	-0.6035903088	-0.2540176166	-0.28389
C	 0.7690403295	-0.6532588716	 1.1785311948	-0.123115
C	 1.484567394	 0.1405766184	 2.2185770677	 0.391156
C	 1.3013329133	-0.3289630541	 3.6511368888	-0.482204
O	 2.1728119495	 1.1054636802	 1.9495925407	-0.327508
H	 0.6999518162	 2.0660238286	 0.3597003102	 0.157036
H	-0.4080092826	 1.871840621	-1.0123138229	 0.115755
H	-1.0392799789	 1.8753502702	 0.6398290545	 0.112263
H	-0.9115556036	-0.5081699004	-0.2242927693	 0.091608
H	 1.2843278347	-1.5314740659	-0.8147918139	 0.11343
H	 2.1308853108	 0.0449550087	-0.4071205799	 0.137701
H	 0.3449744421	-1.5894834755	 1.5262593301	 0.082378
H	 1.6745148002	-1.3537740355	 3.7625962413	 0.138559
H	 1.8376662899	 0.3325106303	 4.3321778035	 0.139161
H	 0.2370054327	-0.349800571	 3.91212556	 0.137948
68.8428	137.8778	182.609	209.9665	244.4833	330.7764	390.8858	407.5223	596.4876	619.4569	751.4984	760.6921	860.1088	876.4889	938.0655	961.1045	1011.2865	1050.8244	1077.889	1093.8507	1120.1462	1147.2074	1184.3045	1208.7308	1237.5907	1374.9032	1390.2891	1412.417	1425.1861	1463.9988	1474.2812	1476.1504	1501.2698	1507.0838	1784.2785	3032.8789	3034.8309	3089.7417	3092.6321	3128.4838	3133.2751	3147.5869	3152.5484	3161.8875	3226.4317
CC1CC1C(C)=O	C[C@H]1C[C@H]1C(=O)C	
InChI=1S/C6H10O/c1-4-3-6(4)5(2)7/h4,6H,3H2,1-2H3	InChI=1S/C6H10O/c1-4-3-6(4)5(2)7/h4,6H,3H2,1-2H3/t4-,6+/m0/s1
