15
gdb 2467	5.9259	2.43402	2.08165	0.902	56.6	-0.2445	0.0956	0.3401	663.0222	0.125156	-345.635513	-345.629316	-345.628372	-345.665367	23.679	
C	 0.1911475583	 1.535800124	 0.0210899756	-0.402472
C	 0.0915960175	 0.0296342581	 0.0087932995	 0.233517
O	 0.7839614407	-0.5093591749	-1.1137621994	-0.270217
C	 1.2171121767	-1.7895544408	-0.7185788537	 0.06232
C	 2.5104745276	-1.8302519221	 0.0652062268	-0.322774
C	 1.1750048857	-1.7990142379	 0.7753446217	 0.062306
O	 0.7198700518	-0.5237233238	 1.1616268158	-0.270211
H	 1.2409356176	 1.8363659548	 0.0527791332	 0.13094
H	-0.2739835615	 1.9462488316	-0.8786603689	 0.129912
H	-0.3244232276	 1.9351095386	 0.898076503	 0.129904
H	-0.9605696892	-0.3062869941	-0.0229749937	 0.067147
H	 0.8985750014	-2.607670155	-1.3552336564	 0.103846
H	 3.0642296044	-2.7639895364	 0.0748852501	 0.113931
H	 3.1044910167	-0.9241823785	 0.0877088314	 0.128002
H	 0.8213678498	-2.6249638535	 1.3826786452	 0.103847
122.9004	211.0601	306.4669	324.557	469.1307	502.8942	690.978	730.8777	784.5416	802.9274	846.8983	886.11	950.0955	1005.0363	1007.2096	1066.1882	1089.3056	1109.3889	1109.8105	1128.0893	1150.905	1159.7142	1201.0918	1306.3324	1368.4493	1377.4451	1395.7415	1432.8936	1457.049	1484.4752	1486.1232	2940.9511	3055.6488	3131.0581	3135.3345	3140.7177	3163.304	3172.7558	3232.5905
CC1OC2CC2O1	C[C@H]1O[C@H]2C[C@H]2O1	
InChI=1S/C5H8O2/c1-3-6-4-2-5(4)7-3/h3-5H,2H2,1H3	InChI=1S/C5H8O2/c1-3-6-4-2-5(4)7-3/h3-5H,2H2,1H3/t3-,4-,5+
