16
gdb 595	11.05396	1.62236	1.54412	1.392	56.79	-0.2617	0.0807	0.3424	799.4573	0.142775	-271.61389	-271.606856	-271.605911	-271.644826	24.947	
O	-0.0666969354	 1.4011848983	 0.0259659098	-0.421837
C	-0.0370914019	-0.0121524401	 0.1606801772	-0.063086
C	-1.4092665637	-0.5501936847	-0.2303907915	-0.192637
C	-1.4924684915	-2.0584961481	-0.1451754182	 0.030887
C	-1.7925712088	-2.7355140839	 1.1710368959	-0.255204
C	-2.8192338724	-2.7416263361	 0.0645545886	-0.274028
H	 0.7950463864	 1.7454156305	 0.2774792028	 0.284359
H	 0.7343586184	-0.4584635907	-0.4888667026	 0.08072
H	 0.1965580813	-0.3125304384	 1.1945527869	 0.086802
H	-2.1615332253	-0.0958854753	 0.4261583214	 0.100156
H	-1.6375795035	-0.2104432609	-1.2482952644	 0.10506
H	-0.7934616201	-2.5833645993	-0.7927519464	 0.079135
H	-1.2837694997	-3.6634721254	 1.4075903838	 0.108732
H	-1.9833206839	-2.1027182639	 2.0320342858	 0.110068
H	-3.69651771	-2.114367378	 0.1843953763	 0.111327
H	-3.0087000798	-3.673566684	-0.4565106454	 0.109545
96.7667	103.1128	173.9636	262.8935	328.9793	397.7068	446.9777	775.8662	787.2131	825.5852	842.4737	917.4137	960.487	1028.2126	1042.3317	1062.882	1077.4935	1085.7971	1140.7636	1188.5104	1198.5284	1228.2479	1241.0792	1252.5757	1312.9344	1328.6519	1417.3693	1461.3444	1468.9235	1490.1712	1507.8642	1527.5704	2959.8708	2988.619	3026.9872	3067.3008	3127.4811	3128.3507	3133.904	3205.7295	3221.1197	3830.9913
OCCC1CC1	OCCC1CC1	
InChI=1S/C5H10O/c6-4-3-5-1-2-5/h5-6H,1-4H2	InChI=1S/C5H10O/c6-4-3-5-1-2-5/h5-6H,1-4H2
