18
gdb 4563	5.41001	1.43018	1.14724	0.0064	83.11	-0.2262	0.006	0.2322	1068.221	0.154593	-310.752322	-310.744169	-310.743225	-310.787271	29.393	
C	-0.0123498564	 1.540937791	 0.01041967	-0.49275
C	 0.0219725009	 0.032184471	-0.0002559493	 0.300875
C	-0.1126134123	-0.6857467801	-1.1910224682	-0.178581
C	-0.1120778293	-2.0773018876	-1.1965826514	-0.178581
C	 0.0282406281	-2.8046177957	-0.0121899519	 0.300876
C	 0.062709556	-4.3133775872	-0.0213994273	-0.492751
C	 0.1628606671	-2.0864543501	 1.1789907377	-0.177896
C	 0.1623588671	-0.6953667158	 1.1845451936	-0.177896
H	 0.6011412949	 1.9494639317	 0.8191045866	 0.123706
H	 0.3519017452	 1.9559734241	-0.9340170315	 0.12322
H	-1.0326721959	 1.9169850086	 0.1574024411	 0.131673
H	-0.2222153776	-0.1478792345	-2.1286846149	 0.084909
H	-0.2200340829	-2.6077421794	-2.1386564269	 0.08491
H	 1.0892903219	-4.6896566528	-0.1142272509	 0.131672
H	-0.3502872845	-4.7287433924	 0.9027988113	 0.123707
H	-0.5079646581	-4.7213550602	-0.8609114285	 0.123219
H	 0.2723983987	-2.6243930454	 2.116654785	 0.084844
H	 0.2703939472	-0.1648548451	 2.1266046954	 0.084844
9.873	39.6626	136.3506	284.3051	310.2439	382.6945	415.5938	462.2232	502.1988	655.3414	724.7207	729.1609	814.7733	836.1937	862.5943	942.9142	956.4959	988.871	1024.7947	1034.6999	1060.8008	1063.7496	1142.0743	1209.2184	1229.6051	1238.2333	1330.9224	1335.7702	1412.2849	1413.2018	1435.3351	1486.4782	1487.5923	1488.4779	1500.0546	1549.4355	1614.4191	1657.974	3024.5595	3024.8125	3082.1148	3082.2447	3110.2004	3110.2056	3154.4489	3154.7885	3171.0716	3174.7595	9.7915	39.6439	136.3499	284.3047	310.2435	382.6943	415.5928	462.2232	502.1989	655.3414	724.7206	729.1608	814.7735	836.1937	862.5943	942.9134	956.4957	988.8712	1024.7952	1034.7	1060.8013	1063.7503	1142.0741	1209.2181	1229.6052	1238.2331	1330.9225	1335.7703	1412.2856	1413.2025	1435.3354	1486.4793	1487.5936	1488.4791	1500.0557	1549.4353	1614.4193	1657.974	3024.5595	3024.8125	3082.1147	3082.2447	3110.2004	3110.2056	3154.4488	3154.7883	3171.0715	3174.7594
CC1=CC=C(C)C=C1	Cc1ccc(C)cc1	
InChI=1S/C8H10/c1-7-3-5-8(2)6-4-7/h3-6H,1-2H3	InChI=1S/C8H10/c1-7-3-5-8(2)6-4-7/h3-6H,1-2H3
