16
gdb 2282	8.1579	1.38315	1.26283	2.9381	62.21	-0.2278	-0.0238	0.204	935.2086	0.136017	-325.754109	-325.74684	-325.745896	-325.786187	25.312	
O	-0.3246989537	 0.0413506434	 0.3080941257	-0.236373
C	-0.0882787039	 1.1714166466	-0.0294473606	 0.157864
C	 1.3056457813	 1.7730434515	-0.1182370529	-0.236866
N	 1.394080591	 2.7342379423	-1.1899211785	-0.075781
C	 1.572460228	 2.2549554828	-2.5790172105	-0.161578
C	 2.4872438059	 3.4742961617	-2.8435071181	-0.22405
C	 2.5979463006	 3.5838606479	-1.303207721	-0.156573
H	-0.8949838863	 1.8905195604	-0.2983982184	 0.083601
H	 1.4728007545	 2.3013040513	 0.83304387	 0.128879
H	 2.045717635	 0.9540090592	-0.1721414527	 0.101944
H	 2.1234842369	 1.3016970021	-2.6346416473	 0.091955
H	 0.6487345337	 2.1611546479	-3.1589922011	 0.107457
H	 3.4082338101	 3.295433295	-3.3979798503	 0.108789
H	 1.9506463283	 4.3145602047	-3.2869419329	 0.117071
H	 2.5063271993	 4.5727818511	-0.8418203609	 0.104747
H	 3.5094393493	 3.0967157418	-0.9206609403	 0.088915
62.758	93.2471	142.5579	218.8819	342.3945	386.5016	468.9254	678.9631	739.663	809.8316	848.0553	928.4891	939.0698	996.883	1015.0263	1064.0841	1127.8034	1136.7082	1152.2747	1209.4359	1214.3643	1235.404	1258.0839	1268.9307	1295.2313	1336.1544	1360.435	1404.9222	1454.987	1487.417	1505.7445	1533.4	1838.8873	2882.3174	2943.9446	2967.3728	2976.3269	3018.9986	3060.212	3063.8935	3089.7672	3146.0167
O=CCN1CCC1	O=CCN1CCC1	
InChI=1S/C5H9NO/c7-5-4-6-2-1-3-6/h5H,1-4H2	InChI=1S/C5H9NO/c7-5-4-6-2-1-3-6/h5H,1-4H2
