15
gdb 4920	6.56932	1.2887	1.08928	1.4134	63.95	-0.1704	0.0658	0.2362	1044.6396	0.120358	-396.015501	-396.007704	-396.00676	-396.047383	28.869	
C	 0.0855785324	 1.3536014655	-0.1233148587	-0.321851
N	-0.1775404493	-0.0458530827	 0.1425851769	-0.37008
C	 0.5559720398	-0.6589195093	 1.1468587155	 0.330535
C	 1.2660592332	-0.0973710439	 2.1766699957	-0.210691
N	 1.7429262474	-1.1955926753	 2.9144124031	-0.3042
C	 1.3091216767	-2.3006286335	 2.2783577637	 0.450525
O	 1.6241591189	-3.5198178473	 2.7500991718	-0.427407
N	 0.5934657175	-2.0426648775	 1.2138099452	-0.432563
H	 1.1468340941	 1.5717547339	-0.3296853955	 0.105409
H	-0.5129904917	 1.6789267743	-0.977245435	 0.121391
H	-0.2157567119	 1.9571642288	 0.7409548967	 0.127358
H	-0.2345726082	-0.6279726951	-0.6808289575	 0.237073
H	 1.4704196724	 0.9160514038	 2.4693177008	 0.114923
H	 2.3066251754	-1.1738187043	 3.7454592256	 0.267352
H	 1.2040819834	-4.1530290475	 2.1550471017	 0.312228
92.846	173.3287	207.2056	255.3056	298.6399	363.2693	399.6756	435.1888	510.5274	552.7797	574.246	689.386	710.6674	738.9774	760.9524	993.2296	1035.9555	1092.7515	1099.4202	1157.7278	1173.4677	1203.9615	1291.687	1298.456	1375.9406	1457.2727	1478.5948	1497.2867	1523.6346	1582.8805	1626.1814	1653.0351	2963.573	3052.1867	3117.2004	3299.2304	3595.221	3688.9431	3810.117
CNC1=CNC(O)=N1	CNc1c[nH]c(O)n1	
InChI=1S/C4H7N3O/c1-5-3-2-6-4(8)7-3/h2,5H,1H3,(H2,6,7,8)	InChI=1S/C4H7N3O/c1-5-3-2-6-4(8)7-3/h2,5H,1H3,(H2,6,7,8)
