16
gdb 995	3.88827	3.17034	1.78537	2.0775	67.42	-0.191	0.0511	0.2421	718.2272	0.137574	-288.682324	-288.675088	-288.674144	-288.713769	26.091	
C	 0.0199511293	 1.4328688802	 0.0354496376	-0.33748
N	 0.0078689305	-0.0132627677	 0.0151622049	-0.019823
C	-0.0242567621	-0.789715847	-1.1203353224	-0.112017
C	-0.027186058	-2.1100423861	-0.741635375	-0.161885
C	 0.0044611256	-2.1353829641	 0.6792386106	-0.227568
C	 0.025792611	-0.8314576798	 1.126959967	 0.290337
C	 0.0619085218	-0.2854784061	 2.5160087284	-0.501708
H	 0.9203570119	 1.8187509444	 0.5260134822	 0.135521
H	 0.0039101879	 1.8023044124	-0.9912638954	 0.139228
H	-0.8550885783	 1.8334582137	 0.5591157298	 0.135472
H	-0.0421834985	-0.3282464925	-2.0953536106	 0.107118
H	-0.0493701649	-2.9592817273	-1.4071475628	 0.08863
H	 0.0111963895	-3.0098454567	 1.3130803833	 0.08455
H	 0.9549331689	 0.3238083625	 2.7078463332	 0.122782
H	-0.8090352298	 0.3420615652	 2.7465002289	 0.122738
H	 0.0690729353	-1.1107004711	 3.2317996004	 0.134104
54.1584	152.8776	195.4015	242.5176	268.2943	420.7449	617.0282	632.7013	638.5145	703.7185	727.0384	768.576	829.7842	901.6227	990.4176	1037.2318	1061.5835	1075.3014	1113.2033	1148.9618	1203.3428	1263.3279	1337.2115	1392.7266	1419.071	1449.6326	1470.0622	1475.6618	1487.0334	1488.5671	1517.7235	1536.6071	1600.4936	3009.2182	3028.1712	3049.0509	3080.1498	3120.1886	3135.5511	3234.7116	3245.8488	3263.8041
CN1C=CC=C1C	Cn1cccc1C	
InChI=1S/C6H9N/c1-6-4-3-5-7(6)2/h3-5H,1-2H3	InChI=1S/C6H9N/c1-6-4-3-5-7(6)2/h3-5H,1-2H3
