13
gdb 3661	3.66546	3.44857	1.80303	5.1193	56.13	-0.215	0.0147	0.2297	668.644	0.103211	-336.817321	-336.810451	-336.809507	-336.848254	24.268	
C	-0.0335527771	 1.5194598128	 0.0746234572	-0.509422
C	-0.0336002428	 0.029893176	-0.0302292189	 0.273225
C	 0.0058759495	-0.7719616022	-1.1551854235	 0.253127
N	-0.0032957468	-0.4951536893	-2.5218134343	-0.606521
N	-0.0273664033	-2.0329829488	-0.6607480881	-0.21407
N	-0.0705298213	-2.0320599267	 0.696563182	-0.134619
N	-0.0827358194	-0.7877502006	 1.0640187589	-0.243544
H	 0.6554997246	 1.9772784295	-0.6452107726	 0.112056
H	-1.0262529115	 1.9524113167	-0.0990726748	 0.131953
H	 0.2835229867	 1.813118177	 1.0777979755	 0.151284
H	 0.043473781	 0.4994383863	-2.7005354428	 0.258651
H	 0.7351010638	-0.9599563545	-3.0378271926	 0.254102
H	-0.0487990133	-2.9066898962	-1.1611302059	 0.273779
72.6162	171.8085	238.5018	253.8859	315.8372	432.734	518.0589	652.8349	679.1507	725.8761	735.9229	778.9568	977.5748	1025.1594	1045.9527	1066.866	1103.6917	1244.7087	1299.0837	1318.2994	1396.374	1417.5424	1481.5628	1495.9865	1532.5591	1634.9829	1666.0725	3021.8819	3068.9016	3125.6825	3525.3448	3620.7872	3659.2734
CC1=C(N)NN=N1	Cc1c(N)[nH]nn1	
InChI=1S/C3H6N4/c1-2-3(4)6-7-5-2/h1H3,(H3,4,5,6,7)	InChI=1S/C3H6N4/c1-2-3(4)6-7-5-2/h1H3,(H3,4,5,6,7)
