11
gdb 2814	4.00523	2.39167	1.65796	6.1718	55.85	-0.3124	-0.0116	0.3008	706.0079	0.079168	-302.309526	-302.303179	-302.302234	-302.339992	22.206	
N	-0.1248571749	-1.1603241554	-0.0038621464	-0.314557
C	-0.0568178752	-0.0064886106	 0.0122353975	 0.302771
C	 0.0010990974	 1.4286591219	 0.0298875592	-0.164943
C	 0.4911795408	 2.151554291	 1.2627194484	-0.278889
C	 1.3519515031	 2.1553403329	 0.0210797741	-0.164943
C	 2.5811976442	 1.4126571622	-0.0048805075	 0.302774
N	 3.5812704191	 0.8334054286	-0.0281449504	-0.314557
H	-0.7789318523	 1.9100080009	-0.5498186999	 0.154718
H	-0.0045419699	 3.0764486133	 1.5306204583	 0.151206
H	 0.8244232943	 1.5421023612	 2.0930871068	 0.171703
H	 1.3742684333	 3.0682759241	-0.5639470801	 0.154717
101.0635	180.5506	245.9335	257.0114	466.6427	513.8528	578.0486	659.2351	768.5665	773.1114	858.3406	941.3383	987.2765	1082.383	1101.6805	1122.158	1149.5089	1215.3987	1372.2613	1392.6392	1482.0655	2364.4798	2365.2036	3158.8887	3174.5272	3181.412	3256.9971
N#CC1CC1C#N	N#C[C@H]1C[C@H]1C#N	
InChI=1S/C5H4N2/c6-2-4-1-5(4)3-7/h4-5H,1H2	InChI=1S/C5H4N2/c6-2-4-1-5(4)3-7/h4-5H,1H2/t4-,5+
