16
gdb 1136	5.16316	1.91285	1.81172	3.9727	61.35	-0.2442	0.04	0.2842	767.4844	0.135678	-325.812885	-325.805432	-325.804488	-325.844193	27.847	
C	-0.0607345667	 1.5464985184	 0.0119288665	-0.427685
C	-0.0372221738	 0.0191825705	-0.01874882	 0.350875
C	-1.4153858922	-0.5789960674	 0.2590184885	-0.427734
C	 0.7202933761	-0.6059579463	-1.2388266293	-0.439021
C	 1.7402333391	-1.1388217614	-0.2050843443	 0.438521
O	 2.7499454154	-1.7902949585	-0.2381356554	-0.365234
N	 1.0329026879	-0.5651711545	 0.82071028	-0.350903
H	 0.9331367808	 1.9565427937	-0.1886013189	 0.123447
H	-0.7552181141	 1.9374040465	-0.7388425933	 0.123029
H	-0.3896629482	 1.9132548645	 0.9907575383	 0.116079
H	-2.1419282314	-0.2378257476	-0.4856298116	 0.123101
H	-1.3794999215	-1.6717811954	 0.2327274787	 0.123441
H	-1.7830118581	-0.2736135408	 1.2451300958	 0.116091
H	 0.1786220783	-1.3862591193	-1.776779109	 0.126528
H	 1.1357085627	 0.1109069123	-1.9496048418	 0.126503
H	 1.1908766157	-0.5558629445	 1.818300106	 0.242964
58.9176	225.3736	257.1402	315.2679	336.7084	347.8899	358.1243	456.5685	516.2778	562.8155	623.7891	777.6066	873.4983	904.104	954.0089	957.2296	992.0272	1020.4911	1082.1962	1129.9339	1193.9091	1224.0473	1268.9455	1277.0662	1378.5186	1403.1927	1419.5147	1460.1774	1480.0656	1487.207	1502.073	1505.8397	1893.6289	3029.1342	3034.4492	3082.3793	3095.0875	3100.9398	3113.0191	3116.0235	3140.5979	3599.8938
CC1(C)CC(=O)N1	CC1(C)CC(=O)N1	
InChI=1S/C5H9NO/c1-5(2)3-4(7)6-5/h3H2,1-2H3,(H,6,7)	InChI=1S/C5H9NO/c1-5(2)3-4(7)6-5/h3H2,1-2H3,(H,6,7)
