15
gdb 930	5.55639	2.51908	1.75211	0.325	69.91	-0.2361	0.0045	0.2407	716.7466	0.127387	-271.458576	-271.452298	-271.451354	-271.490149	23.31	
C	-0.0117195668	 1.5234800402	 0.0103391293	-0.494069
C	-0.0089052882	 0.0143135821	 0.0022205061	 0.328755
C	-0.0038616072	-0.6965524191	-1.2016066613	-0.183582
C	 0.0269483994	-2.0884265906	-1.2122990032	-0.089086
C	 0.05096882	-2.7969187218	-0.0134208178	-0.121184
C	 0.0414768819	-2.1015164974	 1.1932643885	-0.08908
C	 0.0106302783	-0.7095775849	 1.1980688052	-0.183683
H	 1.0096050652	 1.9245101689	 0.002531113	 0.133279
H	-0.5230439031	 1.9290081911	-0.8677920221	 0.124525
H	-0.5059025374	 1.9194936281	 0.9024884495	 0.124449
H	-0.026631914	-0.1513605007	-2.1408448831	 0.08609
H	 0.0280624747	-2.6201883726	-2.1583697581	 0.092349
H	 0.0718047116	-3.8815216588	-0.0194480703	 0.092787
H	 0.0539945616	-2.6435172098	 2.1334233204	 0.092348
H	-0.0007653961	-0.1746249648	 2.1433776041	 0.086102
13.2326	211.1698	340.3382	414.4366	478.4558	526.0378	632.4802	716.2096	752.6377	797.8522	866.3421	909.755	952.1108	985.938	1000.2668	1014.519	1052.7545	1063.0599	1112.2099	1181.1798	1204.2909	1231.6192	1333.0293	1348.4539	1413.1856	1467.7377	1488.3888	1502.3855	1529.7724	1625.4066	1646.9112	3026.4157	3083.6896	3111.3874	3161.7098	3163.4093	3176.0685	3184.2829	3197.4286
CC1=CC=CC=C1	Cc1ccccc1	
InChI=1S/C7H8/c1-7-5-3-2-4-6-7/h2-6H,1H3	InChI=1S/C7H8/c1-7-5-3-2-4-6-7/h2-6H,1H3
