12
gdb 4380	3.80777	2.03892	1.32789	2.6595	60.3	-0.2324	-0.0396	0.1928	830.1282	0.086207	-414.725756	-414.719684	-414.71874	-414.755847	23.565	
O	 0.1297418864	 1.3063982812	-0.0172264836	-0.40999
C	 0.0847389715	-0.0373345273	-0.0265987309	 0.402298
C	-0.044284394	-0.7173650049	-1.242336057	-0.093052
N	-0.0902077417	-2.0464426358	-1.2680912029	-0.213291
C	-0.0105462754	-2.7038749133	-0.1145535662	-0.093051
C	 0.1182186811	-2.0051534971	 1.0905693527	 0.402297
O	 0.197497824	-2.6841829214	 2.248310223	-0.40999
N	 0.1658915848	-0.6767358165	 1.1368867512	-0.434755
H	 0.2197762925	 1.5788228917	 0.9060671299	 0.301628
H	-0.1085334897	-0.1734572632	-2.178096552	 0.123139
H	-0.0471949829	-3.7874474578	-0.126351474	 0.123139
H	 0.2809880333	-2.0287592156	 2.9541726598	 0.301628
203.4165	247.267	335.5557	472.3713	485.9226	493.1966	537.2875	568.829	585.0072	700.1969	748.8282	780.7761	875.2733	916.1979	1017.7558	1038.683	1171.8006	1194.7964	1218.3024	1301.4754	1338.0188	1397.1326	1504.2208	1519.8277	1598.9742	1653.4908	3190.8729	3195.2339	3774.1083	3775.8287
OC1=CN=CC(O)=N1	Oc1cncc(O)n1	
InChI=1S/C4H4N2O2/c7-3-1-5-2-4(8)6-3/h1-2H,(H2,6,7,8)	InChI=1S/C4H4N2O2/c7-3-1-5-2-4(8)6-3/h1-2H,(H2,6,7,8)
