16
gdb 4467	3.59321	1.69495	1.16718	0.4033	67.99	-0.1719	0.0677	0.2396	995.8641	0.130622	-379.953488	-379.944877	-379.943933	-379.986192	31.502	
C	 0.0675224341	 1.5149984104	 0.0250807353	-0.506061
C	 0.0573581876	 0.0174623302	 0.0163968775	 0.278758
C	-0.0321630807	-0.7871528334	-1.0960452729	 0.138884
N	-0.1363086754	-0.5416744713	-2.4855450405	-0.617084
N	-0.006705505	-2.1082864362	-0.6612306597	-0.303634
C	 0.0958142558	-2.135258372	 0.6942849411	 0.38489
O	 0.1349619458	-3.3498793146	 1.3041872534	-0.438682
C	 0.1390519274	-0.8446990042	 1.1626291125	-0.404046
H	 0.9906983515	 1.9173826964	 0.460015373	 0.120527
H	-0.0158231471	 1.9105095341	-0.9922278918	 0.101533
H	-0.7647309213	 1.927911009	 0.6081859491	 0.120515
H	-0.9735405867	-0.0207435236	-2.7236658258	 0.240142
H	 0.657672953	-0.0235254521	-2.8461430005	 0.240186
H	-0.0569500529	-2.9093627378	-1.2664143749	 0.261633
H	 0.2045035101	-3.2038251143	 2.2522470672	 0.304087
H	 0.219308774	-0.5430342507	 2.196520427	 0.078353
101.3676	139.7205	191.6585	225.8958	235.9	255.1571	312.3025	339.5784	460.2477	511.128	593.8709	644.1192	653.7205	671.4471	725.2227	762.4041	816.1036	988.835	1040.8819	1061.2728	1161.7629	1165.6498	1192.5834	1204.2113	1253.6175	1331.7619	1412.4974	1463.466	1486.093	1496.235	1540.4263	1586.792	1641.6746	1666.8853	3016.732	3062.2142	3094.178	3232.5982	3500.0565	3562.9675	3685.1272	3848.1078
CC1=C(N)NC(O)=C1	Cc1c(N)[nH]c(O)c1	
InChI=1S/C5H8N2O/c1-3-2-4(8)7-5(3)6/h2,7-8H,6H2,1H3	InChI=1S/C5H8N2O/c1-3-2-4(8)7-5(3)6/h2,7-8H,6H2,1H3
