16
gdb 4843	5.11021	1.30915	1.11628	0.2139	68.35	-0.1711	0.0627	0.2338	1061.0461	0.131271	-379.940044	-379.931832	-379.930888	-379.973028	30.04	
C	 0.2303431331	 0.99573068	 0.6759082899	-0.321537
N	-0.1030941056	 0.1347991463	-0.4659746507	-0.387759
C	-1.3321693444	-0.5468310964	-0.3734413833	 0.267443
C	-2.6261516122	-0.224180087	-0.6989475895	-0.195592
C	-3.4566950887	-1.3524683973	-0.3951062243	-0.291087
C	-2.6263326866	-2.3174455372	 0.1193598691	 0.369014
O	-2.8326049585	-3.5795344371	 0.5813682457	-0.439576
N	-1.3490048592	-1.8395232412	 0.1360827492	-0.308139
H	 1.2057959489	 1.4611868187	 0.5030064515	 0.113441
H	-0.511645155	 1.7866277827	 0.8654004396	 0.106916
H	 0.304822765	 0.3842466576	 1.5799321838	 0.125121
H	-0.0635961182	 0.6673502539	-1.3260127252	 0.23069
H	-2.9544752834	 0.7198495189	-1.1072696598	 0.082319
H	-4.5242454935	-1.4346709054	-0.5303261239	 0.08168
H	-3.7734675848	-3.7690299977	 0.5195335798	 0.304644
H	-0.5311070869	-2.3686436988	 0.3853156282	 0.262422
42.928	138.0224	179.9572	221.2158	271.9011	318.9252	401.0086	447.2025	474.9205	611.0064	640.8407	676.4768	691.9008	727.1759	761.2366	800.1023	983.875	1017.0616	1048.2825	1061.2737	1140.1606	1160.0514	1168.5176	1235.8427	1273.1872	1305.9231	1406.3082	1451.4464	1477.5413	1487.8327	1511.9833	1535.1439	1579.386	1640.9158	2983.7369	3071.4401	3109.6785	3236.0126	3250.4462	3551.8332	3680.7125	3847.7546
CNC1=CC=C(O)N1	CNc1ccc(O)[nH]1	
InChI=1S/C5H8N2O/c1-6-4-2-3-5(8)7-4/h2-3,6-8H,1H3	InChI=1S/C5H8N2O/c1-6-4-2-3-5(8)7-4/h2-3,6-8H,1H3
