13
gdb 1883	4.96724	2.32689	1.93137	5.0903	49.8	-0.2661	0.0143	0.2803	664.8513	0.102459	-381.631601	-381.625358	-381.624414	-381.661856	22.786	
O	-0.3401554194	 1.4293052003	 0.2423060807	-0.428619
C	 0.01096106	 0.0766317051	 0.0055339365	 0.094554
C	 0.6534053714	-0.584657795	 1.2410199253	-0.095148
O	-0.4293344117	-1.0402661176	 2.057707408	-0.21598
C	-1.5800419908	-1.1409203388	 1.3281517547	 0.440792
O	-2.6033883261	-1.5352301386	 1.8005384156	-0.331729
C	-1.2934102078	-0.7044136495	-0.1055175784	-0.357754
H	 0.4648970865	 1.9342469777	 0.3962357544	 0.28841
H	 0.6537147241	-0.0210586503	-0.878904294	 0.08064
H	 1.2811673154	-1.4398816931	 0.9607419006	 0.114287
H	 1.2523100384	 0.1174647488	 1.827849929	 0.116826
H	-2.1114534327	-0.1066502309	-0.5066880998	 0.155271
H	-1.1797307475	-1.6007160782	-0.7241070324	 0.138449
100.5002	181.1853	300.6635	384.7092	401.3611	500.2918	560.3498	685.7977	773.071	843.522	864.0329	900.1639	980.7863	1015.0696	1075.7237	1101.9942	1160.2003	1193.1817	1206.2304	1255.7492	1301.7295	1342.3248	1387.454	1427.3594	1450.6397	1506.5598	1894.3376	3015.4807	3033.1607	3070.8221	3094.9079	3148.5083	3816.3802
OC1COC(=O)C1	O[C@H]1COC(=O)C1	
InChI=1S/C4H6O3/c5-3-1-4(6)7-2-3/h3,5H,1-2H2	InChI=1S/C4H6O3/c5-3-1-4(6)7-2-3/h3,5H,1-2H2/t3-/m1/s1
