11
gdb 860	7.03262	2.20898	1.68098	1.7847	47.72	-0.1866	0.0565	0.2431	666.0864	0.079974	-376.613178	-376.60711	-376.606166	-376.642645	22.913	
O	 0.1170034841	 1.2813522135	 0.0981920101	-0.422921
C	 0.0874937012	-0.0592984184	 0.0180465128	 0.455965
N	 0.1884369913	-0.7792358879	-1.0737415749	-0.443751
C	 0.1016122631	-2.080803378	-0.6297557345	 0.346438
O	 0.1688764983	-3.1127742443	-1.4988427599	-0.4365
C	-0.051222586	-2.1477175592	 0.7243157268	-0.216878
N	-0.0577083456	-0.8030377652	 1.1311703034	-0.296919
H	 0.2270558686	 1.6070919402	-0.8032567384	 0.314792
H	 0.2769463392	-2.7233936558	-2.3740117532	 0.299719
H	-0.1515273668	-2.9654268104	 1.4137017268	 0.127868
H	-0.1519707775	-0.4514879344	 2.067820371	 0.272187
239.9381	309.5423	332.3914	335.5592	386.8629	455.673	502.0227	605.3309	641.7109	687.4188	735.4321	766.2299	1018.6319	1037.73	1096.2483	1179.6378	1200.3167	1298.6587	1348.832	1418.3605	1575.3942	1628.1176	1683.0958	3303.9213	3684.5434	3815.5259	3817.5919
OC1=NC(O)=CN1	Oc1nc(O)c[nH]1	
InChI=1S/C3H4N2O2/c6-2-1-4-3(7)5-2/h1,6H,(H2,4,5,7)	InChI=1S/C3H4N2O2/c6-2-1-4-3(7)5-2/h1,6H,(H2,4,5,7)
