14
gdb 1764	4.85136	1.92052	1.75223	3.7435	58.97	-0.2782	0.0159	0.2942	758.3224	0.112242	-324.57519	-324.567803	-324.566859	-324.606239	26.819	
C	-0.0383857899	 1.5331615513	 0.0418956355	-0.407216
C	 0.0344445623	 0.0235249417	 0.0199021154	-0.031391
C	 1.3350936215	-0.6962375839	-0.2278912884	-0.3406
C	 0.7091476959	-0.7162342826	 1.1594958503	 0.246286
O	 1.2650115674	 0.0756773396	 2.165216678	-0.441565
C	 0.1185093767	-1.9539484071	 1.6239871169	 0.24356
N	-0.3328580329	-2.9489543979	 2.0044603997	-0.344091
H	 0.8453619331	 1.9636085415	 0.5163576859	 0.137003
H	-0.1100766155	 1.9223487535	-0.978796076	 0.124574
H	-0.9175192081	 1.8744924107	 0.5969871763	 0.132272
H	-0.8498762094	-0.4732036707	-0.3676770979	 0.116891
H	 1.3365710563	-1.6112069956	-0.8085649186	 0.137206
H	 2.2321680108	-0.0910645605	-0.3083258178	 0.128814
H	 2.0488812916	-0.3711128098	 2.5050762006	 0.298256
142.1259	167.191	181.2958	248.4584	319.7999	331.4469	416.1825	472.1745	575.2248	594.6658	682.9213	792.3201	886.3944	906.0241	940.4156	1026.8377	1058.0902	1087.6084	1137.0282	1193.6311	1242.9443	1264.2423	1346.2281	1405.7247	1423.6433	1474.7485	1492.2361	1502.6801	2345.8807	3044.4393	3105.9312	3134.1581	3136.5732	3161.7148	3231.5427	3795.8669
CC1CC1(O)C#N	C[C@H]1C[C@]1(O)C#N	
InChI=1S/C5H7NO/c1-4-2-5(4,7)3-6/h4,7H,2H2,1H3	InChI=1S/C5H7NO/c1-4-2-5(4,7)3-6/h4,7H,2H2,1H3/t4-,5-/m0/s1
