10
gdb 494	9.90773	2.00413	1.75551	3.3728	45.57	-0.2899	-0.0071	0.2828	646.0972	0.07256	-301.345683	-301.339414	-301.33847	-301.376371	20.023	
N	 0.0719817066	 1.1525596672	-0.2444524247	-0.420612
C	-0.1770299133	-0.0382447418	 0.0697696407	 0.137107
O	-0.5904618938	-0.9045660404	-0.8953801739	-0.169681
C	-0.8559274826	-2.2294183088	-0.4737008971	-0.207661
C	-2.1073871775	-2.3471377166	 0.2923849559	 0.25977
N	-3.0821649532	-2.4390060504	 0.9048308176	-0.284691
H	 0.3764628184	 1.6789681012	 0.5716053489	 0.241438
H	-0.0982370974	-0.4946167423	 1.0651148823	 0.104774
H	-0.9344860096	-2.8280282842	-1.384246722	 0.180025
H	-0.0326657276	-2.6364884239	 0.1278712023	 0.15953
68.0965	83.3652	230.883	333.2581	366.1218	517.5378	677.5712	820.8054	908.2987	954.8925	1036.9517	1038.4206	1137.6581	1235.1968	1317.6987	1392.0988	1424.683	1476.253	1758.3475	2365.0029	3028.5029	3038.8327	3113.0252	3526.7583
N=COCC#N	[NH][CH]OCC#N	
InChI=1S/C3H4N2O/c4-1-2-6-3-5/h3,5H,2H2	InChI=1S/C3H4N2O/c4-1-2-6-3-5/h3,5H,2H2
