14
gdb 4400	3.69947	1.96797	1.28636	5.4369	69.66	-0.1962	-0.0199	0.1763	883.6522	0.110093	-378.797737	-378.791025	-378.790081	-378.828331	26.328	
N	 0.0445741477	 1.4000292516	 0.1601896796	-0.578486
C	-0.0474316118	 0.0225554776	 0.0499107382	 0.457564
C	-1.2281171845	-0.6800685871	 0.0253628178	-0.255664
C	-1.1612834399	-2.0934927321	-0.0117465733	-0.026827
C	 0.0219079476	-2.7764488974	-0.0381009631	-0.276358
C	 1.2825764483	-2.0765327572	-0.0165840622	 0.42599
O	 2.4098375117	-2.5440893674	-0.0261858879	-0.407826
N	 1.1287856116	-0.6635770821	 0.0275512895	-0.4106
H	 0.8226108276	 1.8271489492	-0.3235457368	 0.25695
H	-0.8207153172	 1.8853177758	-0.0255237111	 0.263298
H	-2.1737104635	-0.1550614179	 0.0301295663	 0.08818
H	-2.094273433	-2.6497812375	-0.027845808	 0.105104
H	 0.0670870971	-3.8569367361	-0.0691483871	 0.107643
H	 2.0071569483	-0.1673205494	 0.098574088	 0.251032
171.3692	207.4196	282.6237	334.9595	431.4054	506.1821	530.0758	547.5757	593.1496	633.0557	702.0002	734.01	756.2758	773.6656	836.6994	940.2785	993.021	1021.2453	1075.8002	1123.7625	1167.4699	1213.4342	1296.8193	1360.1684	1453.0199	1503.7304	1605.36	1647.3382	1670.0695	1782.9505	3169.8933	3216.4892	3224.8138	3561.0239	3594.8693	3663.288
NC1=CC=CC(=O)N1	Nc1cccc(=O)[nH]1	
InChI=1S/C5H6N2O/c6-4-2-1-3-5(8)7-4/h1-3H,(H3,6,7,8)	InChI=1S/C5H6N2O/c6-4-2-1-3-5(8)7-4/h1-3H,(H3,6,7,8)
