14
gdb 4574	5.86656	1.56351	1.24402	2.7449	66.45	-0.2458	-0.039	0.2068	927.4039	0.109188	-378.795409	-378.788453	-378.787509	-378.828105	25.155	
C	-0.0566086976	 1.5140452864	 0.0381640711	-0.501173
C	 0.0040308351	 0.0104422082	 0.0040203318	 0.22828
C	 0.0955091682	-0.7154820893	-1.1870483454	-0.041466
N	 0.1511717714	-2.0431506698	-1.2460379731	-0.287527
C	 0.1138551745	-2.6662106216	-0.0697878607	 0.452487
O	 0.169675919	-4.0055532528	-0.1189802426	-0.390581
N	 0.0277222338	-2.1058218766	 1.1375091902	-0.348517
C	-0.0259332918	-0.7732480585	 1.1544071492	-0.049612
H	 0.8372903383	 1.9646255871	-0.4069863929	 0.138225
H	-0.9210844299	 1.8960953327	-0.5157542687	 0.138093
H	-0.1342606881	 1.8785716946	 1.0662054662	 0.129786
H	 0.1252175616	-0.1963368501	-2.1444115445	 0.114672
H	 0.1332346012	-4.3088356884	 0.7982860465	 0.304754
H	-0.0964913956	-0.3089811719	 2.1368667729	 0.112579
15.1436	130.5177	296.9287	331.5169	424.2026	466.7695	509.4261	532.5505	576.7409	672.8121	775.9511	829.5538	898.8635	951.2009	1006.4829	1008.3084	1057.5328	1074.2246	1185.574	1258.9007	1278.8112	1363.6258	1387.0267	1418.4788	1427.5277	1484.4954	1497.0183	1508.1899	1612.2122	1650.8803	3032.7587	3087.4102	3112.3036	3137.3548	3142.9696	3783.5725
CC1=CN=C(O)N=C1	Cc1cnc(O)nc1	
InChI=1S/C5H6N2O/c1-4-2-6-5(8)7-3-4/h2-3H,1H3,(H,6,7,8)	InChI=1S/C5H6N2O/c1-4-2-6-5(8)7-3-4/h2-3H,1H3,(H,6,7,8)
