13
gdb 87	6.49534	5.52329	3.9108	1.8235	45.7	-0.2596	0.091	0.3505	405.521	0.112851	-232.335768	-232.329981	-232.329037	-232.364091	20.719	
C	-0.0397033023	 1.5095499783	-0.0411223315	-0.448442
C	-0.0302355596	-0.0033532943	-0.0649836137	 0.437017
C	-1.2461318904	-0.6835664803	 0.5253118981	-0.448442
C	 0.7893720103	-0.7112919344	-1.0602755862	-0.221445
O	 1.2254679757	-0.6005903626	 0.2971228268	-0.272087
H	 0.8899277162	 1.9094847811	-0.4529655786	 0.126096
H	-0.8795272271	 1.90350108	-0.623766423	 0.11878
H	-0.1444857557	 1.8759060408	 0.9860442878	 0.124348
H	-2.1521872651	-0.4101261558	-0.0262949471	 0.11878
H	-1.1341258397	-1.7700543148	 0.4974703152	 0.126097
H	-1.385866313	-0.3805545263	 1.5688275735	 0.124346
H	 0.5071268958	-1.71386874	-1.3808501824	 0.107476
H	 1.370881035	-0.1436932217	-1.7864085288	 0.107476
178.8794	216.9134	350.1324	359.1959	406.5659	409.6095	704.1244	819.3217	905.4934	931.4463	955.0013	1018.5673	1076.5451	1133.9178	1149.6058	1174.0306	1282.5674	1394.2435	1409.3746	1421.3994	1473.2936	1486.2536	1493.3134	1506.1472	1536.4719	3031.6058	3036.7164	3075.3119	3093.7458	3098.752	3123.0576	3125.2448	3159.0252
CC1(C)CO1	CC1(C)CO1	
InChI=1S/C4H8O/c1-4(2)3-5-4/h3H2,1-2H3	InChI=1S/C4H8O/c1-4(2)3-5-4/h3H2,1-2H3
