11
gdb 4421	3.79611	2.10239	1.35304	2.6672	58.59	-0.2374	-0.075	0.1625	805.6569	0.072551	-434.584985	-434.578796	-434.577852	-434.615363	23.168	
O	 0.0458202353	 1.3236288706	 0.0072485656	-0.383661
C	-0.0449492087	-0.0042365927	 0.0011232983	 0.456751
C	-1.2229453898	-0.6880884406	 0.004230339	-0.173407
N	-1.2159768092	-2.0493659693	-0.0026206973	-0.18597
C	-0.089898295	-2.6935114122	-0.0120628954	-0.131563
C	 1.2174742662	-2.0594231823	-0.0160079453	 0.383714
O	 2.3089951837	-2.5452117272	-0.024719962	-0.313121
O	 1.1312727248	-0.6287214996	-0.0084587987	-0.249117
H	 0.982081231	 1.5671442235	 0.0033008057	 0.32055
H	-2.1698916339	-0.1672601536	 0.0120559245	 0.133883
H	-0.0930482145	-3.7788333566	-0.0175546644	 0.141941
149.9283	201.7544	342.6329	414.6827	463.3414	483.9198	528.4148	577.4539	701.6805	728.1715	759.4036	828.1005	845.6268	896.9401	1012.3095	1081.8571	1159.7426	1220.6699	1324.4775	1388.8739	1453.8662	1542.1044	1679.2868	1866.8324	3185.6753	3230.3888	3778.151
OC1=CN=CC(=O)O1	Oc1cncc(=O)o1	
InChI=1S/C4H3NO3/c6-3-1-5-2-4(7)8-3/h1-2,6H	InChI=1S/C4H3NO3/c6-3-1-5-2-4(7)8-3/h1-2,6H
