15
gdb 1550	4.02389	1.71718	1.27815	3.3999	58.33	-0.2689	0.0263	0.2952	925.5466	0.124531	-341.825957	-341.817654	-341.816709	-341.85896	27.997	
C	 0.672771159	 1.3354752306	-0.0903849282	-0.230167
O	 0.7521626316	-0.0705455321	-0.1612578901	-0.228459
C	-0.1813914787	-0.6335742335	-1.0428250037	-0.03429
C	 0.0734960951	-2.1451066991	-1.103068051	-0.145444
N	-0.9648684227	-2.7837782403	-1.9124997358	-0.50326
C	 1.4456705456	-2.4268482334	-1.578476396	 0.266954
N	 2.4861614558	-2.6917246871	-2.0072040298	-0.32563
H	 0.858414156	 1.8013957486	-1.0701179245	 0.112535
H	-0.3118364226	 1.6696643938	 0.2715102568	 0.108737
H	 1.440498998	 1.6674197814	 0.6115258842	 0.136747
H	-1.2165226524	-0.4789077989	-0.7026463538	 0.110734
H	-0.0902674259	-0.1989501656	-2.0530685798	 0.095605
H	-0.0060149599	-2.5277700374	-0.0798026367	 0.143306
H	-0.8405076848	-2.5366610252	-2.8906254985	 0.243732
H	-0.8711758738	-3.7932587418	-1.8612138331	 0.248903
69.6374	96.857	152.6266	212.4361	239.1125	245.5609	278.9044	397.5185	415.0402	588.2945	606.4975	802.9221	891.8771	990.7729	1010.7743	1074.2162	1140.9038	1166.9027	1180.3381	1206.615	1240.9192	1256.5693	1343.7473	1384.6054	1414.9943	1481.0875	1487.1221	1502.1003	1526.9087	1666.3232	2348.5952	2959.7311	2979.1961	3012.0733	3026.0833	3065.8457	3125.276	3497.4151	3576.4298
COCC(N)C#N	COC[C@@H](N)C#N	
InChI=1S/C4H8N2O/c1-7-3-4(6)2-5/h4H,3,6H2,1H3	InChI=1S/C4H8N2O/c1-7-3-4(6)2-5/h4H,3,6H2,1H3/t4-/m0/s1
