15
gdb 3451	4.4899	2.79691	2.0763	1.8615	55.42	-0.2519	0.0776	0.3295	646.9868	0.126566	-345.645053	-345.638971	-345.638027	-345.674853	23.501	
O	 0.0653146381	 1.3795645675	-0.1271005146	-0.439483
C	 0.0352946791	-0.033948124	-0.0727947633	 0.138296
C	 0.7576987218	-0.6363080884	 1.1649765988	-0.248824
C	 0.0210590657	-1.9526726499	 1.4996351295	-0.245442
C	-1.3797602728	-1.7281046194	 0.960204762	 0.057009
O	-1.9366851559	-0.4527637564	 1.3191553987	-0.270949
C	-1.3657510136	-0.6165625966	 0.0065768632	 0.004479
H	-0.4478589182	 1.6953376581	 0.6264022142	 0.286625
H	 0.508844311	-0.3699933004	-1.0030572045	 0.089805
H	 1.825441165	-0.7778067324	 0.9866091521	 0.105652
H	 0.6566681839	 0.0710397077	 1.9924464209	 0.111033
H	 0.465459423	-2.8078050047	 0.9759688718	 0.106665
H	 0.0303325638	-2.1853044523	 2.5690253007	 0.112092
H	-2.0972632801	-2.5425291631	 0.8998768551	 0.095413
H	-2.0609273707	-0.5188643156	-0.8230517244	 0.097631
116.2611	240.3134	353.3739	390.5256	419.7361	539.5835	638.7114	672.6718	814.2712	833.8356	859.5244	880.0251	934.504	958.5203	1023.2918	1048.5914	1082.7907	1098.5209	1111.0198	1176.0607	1217.2493	1259.0522	1276.6298	1306.9006	1325.6356	1331.1968	1352.6363	1435.4813	1437.2727	1480.4709	1492.7453	3038.3869	3044.7226	3068.5781	3084.7979	3119.6009	3144.8499	3158.5544	3789.0598
OC1CCC2OC12	O[C@H]1CC[C@H]2O[C@@H]12	
InChI=1S/C5H8O2/c6-3-1-2-4-5(3)7-4/h3-6H,1-2H2	InChI=1S/C5H8O2/c6-3-1-2-4-5(3)7-4/h3-6H,1-2H2/t3-,4+,5-/m0/s1
