12
gdb 3543	6.00253	2.93625	2.54992	2.3746	53.3	-0.2382	-0.0103	0.228	543.3087	0.091365	-323.317575	-323.312598	-323.311653	-323.346146	19.389	
O	 0.031940205	 0.0717321533	-0.0607719219	-0.328917
C	 0.0088303627	 1.268285681	-0.054926318	 0.445133
C	-1.0729216444	 2.301007657	 0.0959702871	-0.171978
C	-0.0737539621	 3.1619021551	 0.8319650968	-0.040804
C	 1.0840724086	 2.3685617885	 0.1043870852	-0.207751
C	 0.7706459974	 3.2754001973	-1.0949211342	-0.154827
N	-0.5736558942	 3.5969231011	-0.4777427902	-0.133282
H	-2.1388496593	 2.1966590209	 0.2411534469	 0.124728
H	-0.1710790686	 3.6842705171	 1.7729574768	 0.124034
H	 2.0825218549	 2.126553749	 0.456817884	 0.101377
H	 1.3518565664	 4.1995784	-1.120711672	 0.123968
H	 0.7334357537	 2.8226806495	-2.0918409704	 0.118318
179.3902	406.433	455.9814	594.626	719.1693	759.7062	774.5427	825.1519	833.5215	880.2827	928.0704	947.9326	973.7722	1017.7831	1046.5868	1087.0967	1138.8177	1156.5407	1172.5131	1211.5963	1228.4477	1270.8054	1314.7712	1510.2484	1888.617	3046.5113	3115.5703	3167.8399	3220.6163	3231.5496
O=C1C2C3C1CN23	O=C1[C@H]2[C@H]3[C@@H]1CN23	
InChI=1S/C5H5NO/c7-5-2-1-6-3(2)4(5)6/h2-4H,1H2	InChI=1S/C5H5NO/c7-5-2-1-6-3(2)4(5)6/h2-4H,1H2/t2-,3+,4+,6?/m0/s1
