13
gdb 2517	3.31112	2.18752	1.39783	3.2799	55.61	-0.2636	-0.0593	0.2042	826.4272	0.100233	-340.632075	-340.624198	-340.623254	-340.665221	25.891	
C	-0.2255542124	 1.3922551475	-0.0374845605	-0.329434
N	 0.2600869416	 0.0121660858	 0.0205497753	-0.298841
C	 0.8146521096	-0.4927965933	-1.2333158846	-0.182139
C	 1.2064311044	-1.9645818849	-0.9734522244	 0.16187
O	 2.3455927176	-2.3306227606	-0.9132601607	-0.224334
C	-0.1906602182	-0.4538588357	-2.3026922989	 0.293228
N	-0.965907658	-0.4529316328	-3.1593201897	-0.312071
H	 0.5311504809	 2.1169692364	-0.3791992438	 0.111242
H	-1.0825446897	 1.4490733869	-0.7140760345	 0.157725
H	-0.5626552562	 1.6843651463	 0.9599416667	 0.135526
H	 0.9835408243	-0.0659380212	 0.7283028561	 0.240305
H	 1.7145971618	 0.0372769528	-1.5881054073	 0.125864
H	 0.3411790942	-2.6325369073	-0.7924804138	 0.12106
36.1084	94.2538	155.931	197.0353	238.7475	287.8322	389.5479	470.904	521.0962	582.1411	774.4578	919.8735	955.5697	1032.5983	1051.1922	1136.3972	1152.8316	1195.5592	1262.9653	1339.3837	1403.7526	1459.9252	1487.5676	1495.2313	1519.9362	1845.9089	2360.2613	2945.8679	2969.3579	2976.5054	3087.0972	3128.7998	3522.6832
CNC(C=O)C#N	CN[C@@H](C=O)C#N	
InChI=1S/C4H6N2O/c1-6-4(2-5)3-7/h3-4,6H,1H3	InChI=1S/C4H6N2O/c1-6-4(2-5)3-7/h3-4,6H,1H3/t4-/m1/s1
