14
gdb 4680	6.35629	1.34284	1.11635	3.9132	76.82	-0.2114	-0.0127	0.1987	1022.6158	0.107672	-341.600576	-341.593136	-341.592192	-341.632172	27.438	
C	 0.0047255321	 1.4951393881	 0.1013866294	-0.514194
C	-0.0021238015	 0.0111669269	-0.0352851131	 0.300421
C	-0.0562350725	-0.8190315847	-1.1330868288	-0.168262
N	-0.0374565795	-2.1365147332	-0.7670554595	-0.302289
C	 0.0280740052	-2.1330916392	 0.5540635778	 0.182161
N	 0.0513935203	-0.8454025069	 1.03724649	-0.340543
C	 0.0711127787	-3.253673534	 1.4132828521	 0.267036
C	 0.1091119035	-4.1880170063	 2.1718890777	-0.412252
H	 0.9171827685	 1.8606874018	 0.5878475849	 0.1352
H	-0.0507390622	 1.9562665108	-0.8872104205	 0.146472
H	-0.8482794891	 1.859618715	 0.6864579187	 0.134997
H	-0.107965976	-0.5255634632	-2.1713755964	 0.106902
H	 0.0993947852	-0.5876629353	 2.00950596	 0.268441
H	 0.1419174273	-5.0233436297	 2.8269374678	 0.195909
127.3463	141.1335	145.435	264.521	318.3335	460.1547	542.6184	546.244	561.4188	569.5967	655.918	684.1401	697.7622	735.3608	848.2072	991.6234	1012.1204	1048.7355	1063.8834	1193.0278	1200.1209	1285.5155	1398.464	1413.3006	1423.8612	1481.1343	1483.2129	1505.9092	1611.6138	2233.5026	3022.9221	3070.1331	3125.7717	3242.7621	3500.1471	3656.5991
CC1=CN=C(N1)C#C	Cc1cnc([nH]1)C#C	
InChI=1S/C6H6N2/c1-3-6-7-4-5(2)8-6/h1,4H,2H3,(H,7,8)	InChI=1S/C6H6N2/c1-3-6-7-4-5(2)8-6/h1,4H,2H3,(H,7,8)
