13
gdb 4609	5.75098	1.62237	1.26843	5.3368	66.31	-0.2094	-0.0649	0.1444	889.6185	0.097233	-394.794273	-394.787421	-394.786476	-394.825588	25.446	
N	 0.0408447017	 1.431017995	 0.1261248378	-0.592457
C	-0.0144708939	 0.0282682806	 0.0269119536	 0.148017
C	-1.140798873	-0.7147262485	 0.0041017821	 0.028108
O	-1.1249680109	-2.0617860736	 0.017481466	-0.193239
C	 0.0812049355	-2.7561495491	-0.018800669	 0.430299
N	-0.0138824939	-4.0174678117	-0.0804660303	-0.527194
N	 1.2672971325	-2.024903336	 0.0238785233	-0.298023
C	 1.2096123997	-0.7373540496	 0.0525406384	 0.015103
H	 0.688059205	 1.8456784097	-0.5345218705	 0.252414
H	-0.8646629672	 1.8710174873	 0.0184619087	 0.248524
H	-2.151264906	-0.3215454756	-0.0006926686	 0.133206
H	 0.9280487427	-4.4043509434	-0.0876983975	 0.23289
H	 2.1563921877	-0.1954676751	 0.102123846	 0.122353
58.6286	191.3141	320.374	327.9474	351.1686	471.0386	500.0225	505.1844	647.2041	736.2482	761.3274	782.6408	834.1073	854.9012	879.2314	963.1391	992.5677	1034.867	1136.8376	1213.7943	1281.7854	1316.2015	1396.4683	1452.0792	1597.0528	1654.6102	1717.6688	1732.486	3111.5183	3200.4998	3521.8733	3522.6882	3612.6818
NC1=COC(=N)N=C1	NC1=CN=C(OC1)[NH]	
InChI=1S/C4H5N3O/c5-3-1-7-4(6)8-2-3/h1-2,6H,5H2	InChI=1S/C4H6N3O/c5-3-1-7-4(6)8-2-3/h1,6H,2,5H2
