16
gdb 4786	5.56995	1.24757	1.09273	2.0495	68.29	-0.1752	0.0519	0.2271	1078.1031	0.131249	-379.936893	-379.9286	-379.927656	-379.969975	30.202	
C	 0.2442008195	 1.027380537	 0.5697235143	-0.323653
N	-0.4195305181	 0.1443961303	-0.3988340176	-0.385517
C	 0.433982759	-0.5033471347	-1.3125589339	 0.319138
C	 0.877858697	-0.1697031716	-2.5797218076	-0.37235
C	 1.7095221284	-1.2387572739	-3.0210966001	 0.335981
O	 2.3696898288	-1.3476107857	-4.213389018	-0.4526
C	 1.7646979626	-2.1834078237	-2.0241374025	-0.183164
N	 0.9783974214	-1.7140568516	-0.9872745359	-0.264018
H	 0.9369466484	 0.4403544225	 1.1791634864	 0.127041
H	 0.8153409837	 1.845142095	 0.1038257024	 0.10863
H	-0.5090384105	 1.4579824035	 1.2363420578	 0.117
H	-1.1358129634	 0.6556563602	-0.8994365168	 0.231582
H	 0.6488770096	 0.7407106664	-3.1144942293	 0.076636
H	 2.1843412847	-0.5605629664	-4.732596356	 0.293243
H	 2.2881704868	-3.1219354268	-1.9696902326	 0.114218
H	 0.734150802	-2.2235983906	-0.1564663406	 0.257832
42.7966	136.7775	179.9285	189.1331	292.429	310.3046	364.782	460.8272	489.3095	584.6715	623.9385	677.9656	684.3208	722.1098	750.0905	785.0187	977.9722	1000.2271	1052.7842	1113.0533	1142.5055	1160.7404	1170.986	1204.0215	1309.7571	1336.3014	1419.7362	1448.0761	1463.7681	1488.9818	1507.1669	1522.1584	1563.0237	1657.2269	2984.7588	3075.6576	3114.3279	3231.207	3284.0449	3553.2375	3686.5589	3849.1792
CNC1=CC(O)=CN1	CNc1cc(O)c[nH]1	
InChI=1S/C5H8N2O/c1-6-5-2-4(8)3-7-5/h2-3,6-8H,1H3	InChI=1S/C5H8N2O/c1-6-5-2-4(8)3-7-5/h2-3,6-8H,1H3
