13
gdb 1457	9.14031	1.33098	1.1772	1.2698	53.28	-0.2567	-0.0254	0.2313	950.092	0.101077	-377.795528	-377.78772	-377.786776	-377.828332	25.722	
N	-0.1464196787	 1.3573709689	-0.2463487444	-0.485472
C	-0.0230964481	-0.0558428612	 0.0482433614	-0.277479
C	 0.8983121611	-0.4016386622	 1.2093630322	 0.435682
O	 1.5092551829	 0.3852471919	 1.8789245346	-0.337346
O	 0.9334211206	-1.7624363232	 1.387216277	-0.201659
C	 1.7170757629	-2.267107137	 2.3972538132	 0.118422
N	 1.7437111028	-3.5141513502	 2.5526679339	-0.415888
H	-0.4713934335	 1.8486941416	 0.5814093674	 0.239103
H	 0.7725516188	 1.7440836955	-0.441595108	 0.239044
H	-1.0078975224	-0.4851832015	 0.2684207749	 0.150418
H	 0.3383884096	-0.5976024831	-0.8339953344	 0.150406
H	 2.237157156	-1.4903798855	 2.9581967188	 0.143604
H	 2.358668728	-3.7517411439	 3.3298432234	 0.241166
55.3131	109.8104	113.4607	169.2159	219.2782	309.705	405.1697	531.1963	558.9452	725.0878	853.8109	899.847	917.1671	949.6801	1008.3205	1071.9379	1152.741	1172.9536	1180.759	1263.4446	1372.1687	1385.8158	1391.3766	1448.958	1677.6165	1747.2362	1842.4881	3042.9624	3077.8251	3139.0196	3498.8648	3506.7958	3568.5767
NCC(=O)OC=N	NCC(=O)O[CH][NH]	
InChI=1S/C3H6N2O2/c4-1-3(6)7-2-5/h2,5H,1,4H2	InChI=1S/C3H6N2O2/c4-1-3(6)7-2-5/h2,5H,1,4H2
