9
gdb 1016	9.63697	2.10471	1.72744	4.7347	52.55	-0.2753	-0.0673	0.208	640.2059	0.057098	-338.268974	-338.263825	-338.262881	-338.298006	18.031	
N	 0.0989999936	-1.1086103081	-0.0047618153	-0.317393
C	 0.0098701862	 0.0444614525	 0.0028388797	 0.273708
C	-0.0940010229	 1.4593146885	 0.0120817028	 0.294888
N	-1.174475407	 2.1810300895	 0.0305872492	-0.284389
C	-0.7117598808	 3.4819219552	 0.0315256715	-0.105314
C	 0.6464915144	 3.4701341919	 0.0132117296	-0.023154
O	 1.0597931691	 2.1764779558	 0.00039485	-0.152965
H	-1.3845301355	 4.3239973866	 0.0452287019	 0.146332
H	 1.4175278929	 4.221135458	 0.0069878306	 0.168289
175.9031	184.899	493.8988	563.3337	600.0898	628.774	742.0774	795.2232	881.7906	934.7854	961.717	1116.1642	1149.2838	1165.9645	1256.8292	1380.1333	1514.4112	1578.2549	2362.3046	3272.5437	3304.694
N#CC1=NC=CO1	N#Cc1ncco1	
InChI=1S/C4H2N2O/c5-3-4-6-1-2-7-4/h1-2H	InChI=1S/C4H2N2O/c5-3-4-6-1-2-7-4/h1-2H
