13
gdb 4713	6.98265	1.29312	1.09329	7.2132	69.25	-0.2145	-0.0476	0.1669	1000.1987	0.097019	-394.822424	-394.815315	-394.814371	-394.853727	25.86	
N	 0.134177282	 1.3985405092	 0.1465131684	-0.607516
C	-0.0135088938	 0.0203767791	 0.030530473	 0.319842
C	-1.1303592698	-0.8046570578	-0.0197232841	-0.139278
N	-0.7599171296	-2.1109683181	-0.0412357673	-0.261777
C	 0.5614315637	-2.122046937	-0.0115096369	 0.246997
N	 1.0534846717	-0.8253147596	 0.0368521149	-0.323295
C	 1.465777526	-3.2624292426	-0.0371232348	 0.084568
O	 1.1425671684	-4.4269050351	-0.0657819051	-0.264652
H	 0.7720958629	 1.8059813306	-0.5274963312	 0.256237
H	-0.754785298	 1.8783265154	 0.1005664974	 0.263399
H	-2.1667085582	-0.5008201944	-0.0434017996	 0.109585
H	 2.0194555905	-0.5550471106	 0.1315729178	 0.270182
H	 2.5424358142	-2.9608351391	-0.0248507725	 0.045708
118.4859	186.6116	200.2982	258.0132	327.9796	370.0732	490.1174	530.4779	658.1713	697.065	701.8538	754.629	802.37	827.2618	1001.3533	1010.7524	1053.8931	1104.9604	1180.4223	1226.5725	1313.4709	1388.506	1459.4156	1470.5152	1509.3128	1619.4702	1659.9123	1799.0968	2819.608	3240.4337	3528.8276	3628.2113	3648.2035
NC1=CN=C(N1)C=O	Nc1cnc([nH]1)C=O	
InChI=1S/C4H5N3O/c5-3-1-6-4(2-8)7-3/h1-2H,5H2,(H,6,7)	InChI=1S/C4H5N3O/c5-3-1-6-4(2-8)7-3/h1-2H,5H2,(H,6,7)
