11
gdb 3828	5.79953	2.91568	1.94024	5.0574	57.66	-0.2265	-0.0571	0.1694	601.2928	0.080801	-335.586914	-335.581394	-335.58045	-335.616406	20.321	
N	-0.0642011939	 1.3138210213	 0.0081155632	-0.517812
C	-0.0584828949	 0.0360406964	 0.0014343615	 0.379313
C	-1.2718052604	-0.7600701177	 0.004138893	-0.178672
C	-1.158016057	-2.098563445	-0.0033507661	 0.058402
N	 0.0940641876	-2.6600196996	-0.0132253038	-0.241202
N	 1.2459832963	-1.9408165716	-0.0160700368	-0.032333
N	 1.189269786	-0.6845128512	-0.0093187904	-0.251525
H	 0.9031098496	 1.6467878557	 0.0044011153	 0.222317
H	-2.2333297014	-0.2652680727	 0.0120465279	 0.131289
H	-1.9905598139	-2.7917874242	-0.0022479641	 0.146443
H	 0.2473409419	-3.6544181113	-0.0192188697	 0.283779
81.5887	372.8625	433.5993	434.4989	547.697	548.6762	645.5589	754.6451	796.4163	836.4527	910.4835	948.6612	972.4903	1037.9539	1066.7674	1140.2926	1220.1822	1328.8174	1402.0892	1448.169	1592.1127	1665.973	1722.4162	3206.0555	3235.7583	3451.0001	3666.4952
N=C1C=CNN=N1	[NH]c1cc[nH]nn1	
InChI=1S/C3H4N4/c4-3-1-2-5-7-6-3/h1-2H,(H2,4,5,6)	InChI=1S/C3H9N4/c4-3-1-2-5-7-6-3/h3-7H,1-2H2
