18
gdb 1660	4.71048	1.80699	1.34978	3.3917	66.18	-0.2336	0.0364	0.27	929.034	0.158348	-327.012568	-327.003498	-327.002554	-327.046659	30.697	
C	-0.0794023462	 1.5732485566	 0.015070619	-0.370092
C	 0.012768692	 0.0481160137	-0.0146261175	-0.309386
C	 0.7272144672	-0.4520015627	-1.273545847	 0.425236
O	 1.1450900582	 0.3349812634	-2.1082578083	-0.379147
N	 0.8763686177	-1.8106663343	-1.4225305737	-0.084922
C	 1.54989776	-2.3212515528	-2.6042972074	-0.341991
C	 0.4165228548	-2.8177289693	-0.4889279107	-0.33579
H	 0.9149767531	 2.024258324	-0.0101075733	 0.132361
H	-0.625775817	 1.947592348	-0.853363113	 0.132352
H	-0.5925706445	 1.9052885481	 0.9224829848	 0.101013
H	 0.5438131982	-0.3164103594	 0.8735889387	 0.119401
H	-0.9908265141	-0.3927818897	 0.0328250035	 0.119429
H	 2.4400251255	-2.8992877653	-2.3237608546	 0.117002
H	 0.8832140706	-2.9798875421	-3.1759883544	 0.116998
H	 1.8445441826	-1.4753348809	-3.222410673	 0.169389
H	-0.0779929794	-2.3694589046	 0.3696891408	 0.139227
H	-0.2937375434	-3.5017530983	-0.9735799906	 0.124482
H	 1.2581370448	-3.4213034144	-0.1219195535	 0.124439
43.7162	79.5662	131.7655	149.7085	217.0573	226.7268	233.8287	349.4654	393.0133	480.1101	573.3456	596.6737	755.4225	824.8792	956.7209	1013.1385	1078.6634	1084.4765	1093.9169	1130.8334	1161.6383	1179.7192	1283.9933	1290.4611	1345.6338	1413.6105	1423.5111	1434.7406	1462.762	1478.8956	1484.0699	1491.3074	1498.4745	1502.5729	1503.7601	1544.1	1751.899	3000.2272	3011.0203	3023.464	3039.1097	3052.323	3053.8158	3057.2052	3123.6336	3136.618	3172.0633	3173.111
CCC(=O)N(C)C	CCC(=O)N(C)C	
InChI=1S/C5H11NO/c1-4-5(7)6(2)3/h4H2,1-3H3	InChI=1S/C5H11NO/c1-4-5(7)6(2)3/h4H2,1-3H3
