15
gdb 2987	3.27176	2.63368	1.7138	2.5321	56.88	-0.2542	-0.0281	0.2261	752.0313	0.122855	-345.638117	-345.630505	-345.629561	-345.670338	26.269	
C	 0.1151927058	 1.5426968924	 0.014029723	-0.419165
C	-0.0313956243	 0.0150089081	 0.006058153	-0.094036
C	 0.6256904681	-0.5863849089	-1.2344664871	 0.164177
O	 0.2706996344	-1.6117264585	-1.7558179145	-0.255468
C	 0.5854642376	-0.602613483	 1.254842298	 0.086467
C	 0.9803206649	-2.0113288556	 1.34641513	-0.188215
O	 1.9638584481	-0.9819604661	 1.1692810569	-0.237316
H	 1.1711119667	 1.831647114	 0.0424725732	 0.13805
H	-0.3358400236	 1.9899974704	-0.8771151875	 0.126103
H	-0.3750186476	 1.975903177	 0.8906459741	 0.126106
H	-1.0906425406	-0.268180372	-0.0220888732	 0.108282
H	 1.4817757264	-0.0018996937	-1.6375210979	 0.088394
H	 0.3247687684	-0.0875492766	 2.1816743436	 0.095368
H	 0.9927346433	-2.4979836991	 2.3201237995	 0.118832
H	 0.8321027726	-2.6651345184	 0.4901312789	 0.14242
71.682	78.9901	204.6677	223.6514	243.3518	304.1553	414.9165	526.99	553.427	764.072	849.9488	887.8783	946.5574	962.0511	1018.0943	1056.2541	1098.1112	1132.068	1155.835	1163.3446	1179.5825	1273.2607	1317.2471	1323.5665	1405.7832	1407.18	1439.2647	1498.8449	1499.6077	1526.6057	1829.089	2890.8908	3037.7335	3043.8633	3087.8204	3097.3193	3109.3335	3113.456	3190.5612
CC(C=O)C1CO1	C[C@@H](C=O)[C@H]1CO1	
InChI=1S/C5H8O2/c1-4(2-6)5-3-7-5/h2,4-5H,3H2,1H3	InChI=1S/C5H8O2/c1-4(2-6)5-3-7-5/h2,4-5H,3H2,1H3/t4-,5+/m0/s1
