11
gdb 3456	5.03688	2.90944	2.80804	2.2243	51.42	-0.2649	-0.0148	0.2501	533.0628	0.078861	-343.218379	-343.213281	-343.212337	-343.247148	19.475	
O	 0.0014799266	-0.0261869811	-0.0602475538	-0.285928
C	-0.0146345599	 1.1526340006	-0.057998037	 0.423312
C	-1.0336154408	 2.3813001397	 0.0642738823	-0.09241
O	-0.0253394502	 2.9294437543	 0.9572771008	-0.258583
C	 0.9732373594	 2.4087880322	 0.0373370791	-0.092417
C	 0.6165404238	 3.0736622578	-1.2703986252	-0.080006
C	-0.7304829041	 3.0551663866	-1.252340396	-0.080022
H	-2.0376638851	 2.3272368171	 0.4757070748	 0.107792
H	 1.9890689329	 2.3823902023	 0.421657674	 0.10779
H	 1.3002267832	 3.3838363229	-2.0461908927	 0.125235
H	-1.4429759459	 3.3461764876	-2.0094110064	 0.125236
155.3788	359.9768	512.0345	563.7312	579.8787	720.6506	785.2207	803.2139	862.7719	881.4392	911.1253	932.7451	944.5042	962.0474	1012.9213	1103.3803	1140.9468	1161.0473	1236.2296	1297.8367	1326.1526	1572.7965	1936.3716	3172.3698	3175.9089	3240.8381	3264.2658
O=C1C2OC1C=C2	O=C1[C@H]2O[C@@H]1C=C2	
InChI=1S/C5H4O2/c6-5-3-1-2-4(5)7-3/h1-4H	InChI=1S/C5H4O2/c6-5-3-1-2-4(5)7-3/h1-4H/t3-,4+
