15
gdb 2349	4.96046	2.13479	1.64374	1.6335	57.03	-0.2348	-0.0169	0.2179	762.8976	0.1235	-345.652182	-345.644682	-345.643738	-345.685298	25.441	
C	 0.2043156679	 0.7206005753	 1.039488557	-0.475399
C	-0.0504814197	 0.4085563152	-0.4177198401	 0.344518
O	 0.6392205589	 0.8208635219	-1.3218998631	-0.296601
C	-1.2699998752	-0.459301173	-0.7211893555	 0.057847
C	-1.106090122	-1.5414453057	-1.8050285731	-0.283099
C	-1.4485856556	-2.5235213311	-0.6656182025	-0.062291
O	-1.5487025089	-1.4462452861	 0.2977538249	-0.292789
H	 1.0954838871	 1.3411101599	 1.1372867399	 0.138223
H	-0.661239859	 1.2385749267	 1.4693797639	 0.142586
H	 0.3133190033	-0.2112987572	 1.6016156156	 0.157607
H	-2.1275268068	 0.2165722656	-0.8664838508	 0.101756
H	-1.821992188	-1.4995986462	-2.6257090714	 0.11721
H	-0.095886022	-1.6081639179	-2.2091594333	 0.13201
H	-2.4008411358	-3.0556540365	-0.77145462	 0.108208
H	-0.6668506043	-3.2410298609	-0.3912377816	 0.110214
24.5853	79.1438	122.223	209.5472	283.802	414.246	499.7946	592.4187	709.0793	794.9644	843.1771	933.1689	942.564	962.0266	1003.804	1045.3279	1058.0318	1112.8181	1164.5856	1207.1844	1212.2241	1253.1395	1262.9531	1348.2158	1354.0682	1380.039	1459.3923	1466.4499	1495.3772	1530.6637	1811.5949	2981.5266	3026.3758	3042.0091	3068.5655	3095.8615	3107.7582	3151.77	3159.5844
CC(=O)C1CCO1	CC(=O)[C@H]1CCO1	
InChI=1S/C5H8O2/c1-4(6)5-2-3-7-5/h5H,2-3H2,1H3	InChI=1S/C5H8O2/c1-4(6)5-2-3-7-5/h5H,2-3H2,1H3/t5-/m1/s1
