11
gdb 3773	4.11911	3.62111	1.95071	2.0796	49.86	-0.247	-0.0406	0.2064	605.101	0.07828	-372.708066	-372.701644	-372.7007	-372.741357	21.418	
C	 0.0610927641	 1.3975500777	 0.0042006175	-0.321005
N	-0.0044357436	-0.0467013403	 0.0229259161	-0.053548
N	-0.158947425	-0.7920597685	-1.0819554046	-0.038631
N	-0.1827587464	-2.0049525677	-0.7914359253	-0.001405
O	-0.0329248269	-2.1232086993	 0.6293006306	-0.24178
C	 0.0808131204	-0.8610474095	 1.139983923	 0.512951
N	 0.229382959	-0.4642994852	 2.3305022859	-0.591348
H	 1.0217865576	 1.7335144465	 0.4031441912	 0.163697
H	-0.0511879735	 1.7242780476	-1.0289620116	 0.165058
H	-0.7396975401	 1.814173759	 0.6205137232	 0.164438
H	 0.2646760644	-1.2435654101	 2.982069374	 0.241574
3.4611	160.7593	222.4215	269.9731	476.1855	646.8268	676.077	719.7067	746.4914	764.7572	789.705	994.5938	1046.0609	1066.1071	1159.9197	1229.7305	1318.8509	1419.4543	1454.498	1470.9851	1514.2384	1525.3486	1788.1419	3056.6642	3122.8203	3171.7648	3545.2805
CN1N=NOC1=N	CN1N=NO[C@@H]1[NH]	
InChI=1S/C2H4N4O/c1-6-2(3)7-5-4-6/h3H,1H3	InChI=1S/C2H5N4O/c1-6-2(3)7-5-4-6/h2-3H,1H3/t2-/m1/s1
