15
gdb 95	9.63416	4.10254	3.28665	0.095	52.94	-0.2896	0.0927	0.3823	455.0215	0.138424	-196.407957	-196.40245	-196.401505	-196.436159	20.299	
C	-0.4700593384	 1.4420654704	-0.0668454791	-0.406976
C	 0.1428730562	 0.05485144	 0.0374798425	 0.07802
C	 1.3725469276	-0.3029527274	-0.8467916824	-0.214868
C	 1.9594799381	-1.0936456079	 0.3532603947	-0.204159
C	 0.9988743314	-0.3076878707	 1.2856309878	-0.214867
H	 0.2921083924	 2.2184482896	 0.0684409998	 0.108707
H	-0.9361460447	 1.6009460472	-1.0461279929	 0.111615
H	-1.2414816135	 1.5970735316	 0.6962759266	 0.111615
H	-0.635173412	-0.7056013236	-0.1005509539	 0.068053
H	 1.1933837565	-0.8411817718	-1.7812938972	 0.090747
H	 1.9686777702	 0.588577083	-1.0700418448	 0.09462
H	 1.6987359711	-2.155007178	 0.305211005	 0.099201
H	 3.0325351011	-1.0107723495	 0.5414805811	 0.092926
H	 1.4829038635	 0.582424282	 1.7021102644	 0.09462
H	 0.5130429604	-0.8497968649	 2.1012106184	 0.090747
149.1417	231.6577	309.7786	404.947	606.2608	750.9824	776.3987	892.1354	893.6183	933.1869	933.6921	975.4878	979.871	1119.2283	1131.7869	1188.9699	1210.7751	1253.4261	1256.243	1263.4643	1282.5031	1299.5364	1373.7238	1408.4931	1478.3125	1486.0436	1495.6179	1496.1814	1511.2364	3019.5025	3027.845	3041.4514	3046.4441	3056.1348	3085.8834	3086.8065	3093.991	3096.3015	3114.2448
CC1CCC1	CC1CCC1	
InChI=1S/C5H10/c1-5-3-2-4-5/h5H,2-4H2,1H3	InChI=1S/C5H10/c1-5-3-2-4-5/h5H,2-4H2,1H3
