11
gdb 737	9.32124	3.6878	2.68634	2.3091	47.01	-0.2566	0.0134	0.27	473.5053	0.087309	-281.504745	-281.499538	-281.498594	-281.533357	18.13	
C	-0.0172664219	 1.4599513489	-0.0033987085	-0.477656
C	 0.0032867066	-0.0312427879	 0.0115641857	 0.353009
N	-0.0931509403	-0.7572527084	-1.0938697419	-0.260849
N	-0.0309833126	-2.0242330934	-0.6138789492	-0.178132
C	 0.0970223545	-2.0084850254	 0.7265126088	 0.019683
N	 0.1227411308	-0.7658985131	 1.1617386645	-0.298788
H	 0.9040031614	 1.8633814735	 0.4281449742	 0.139836
H	-0.1197812503	 1.8243742959	-1.0267532469	 0.139231
H	-0.8500452986	 1.8408889048	 0.5958436336	 0.139836
H	-0.0816410408	-2.8045190932	-1.2473910026	 0.280341
H	 0.1658751811	-2.9039199415	 1.3261765125	 0.143491
103.5516	279.4393	351.5422	530.865	681.2032	692.9749	723.6335	857.0573	985.8138	996.664	1020.1194	1070.9	1101.2739	1170.9444	1291.9231	1343.3193	1406.4299	1471.2261	1478.3315	1480.4243	1494.5017	1568.4176	3048.1274	3104.4709	3145.8383	3255.6932	3669.3209
CC1=NNC=N1	Cc1n[nH]cn1	
InChI=1S/C3H5N3/c1-3-4-2-5-6-3/h2H,1H3,(H,4,5,6)	InChI=1S/C3H5N3/c1-3-4-2-5-6-3/h2H,1H3,(H,4,5,6)
