9
gdb 186	9.19863	4.12641	2.84857	3.6351	40.77	-0.2262	0.0118	0.238	424.2581	0.062567	-321.236907	-321.232405	-321.231461	-321.264644	16.38	
N	-0.0881015165	 1.2831868174	 0.0098166346	-0.573014
C	-0.0075115495	 0.0311829374	 0.0029824375	 0.508998
O	 1.1237407393	-0.7552476238	-0.0078018464	-0.217411
C	 0.6955107657	-2.0702683029	-0.0118446034	-0.053234
C	-0.6316766274	-2.086983894	-0.0039036862	-0.039126
O	-1.1000868783	-0.7889946956	 0.0054788963	-0.194774
H	 0.8372743157	 1.7033831419	 0.0063584363	 0.238446
H	 1.4493707641	-2.8367891687	-0.0202608438	 0.1639
H	-1.3649962732	-2.8731131717	-0.003427275	 0.166216
214.8317	470.1135	566.9957	715.7473	737.1304	749.3039	775.2772	797.6908	893.6813	914.0742	992.9261	1057.2713	1124.6066	1190.0791	1213.5193	1380.0147	1681.2763	1813.7909	3299.1578	3325.3545	3550.9313
N=C1OC=CO1	[NH][C@H]1OC=CO1	
InChI=1S/C3H3NO2/c4-3-5-1-2-6-3/h1-2,4H	InChI=1S/C3H4NO2/c4-3-5-1-2-6-3/h1-4H
