19
gdb 2043	4.11966	2.81542	2.13361	0.1122	71.5	-0.2809	0.0939	0.3748	710.3744	0.172378	-273.732431	-273.725484	-273.72454	-273.76293	27.483	
C	-0.1326861606	 1.5322988506	 0.0417781385	-0.467597
C	-0.0106305376	 0.0035127699	 0.0052746464	 0.385739
C	-1.4267631151	-0.5476447368	-0.2049857357	-0.467597
C	 1.1805264835	-0.6413955252	-0.8053200108	-0.071886
C	 2.1557639547	-0.1224379286	 0.2934099732	-0.229734
C	 0.929132908	-0.7059370646	 1.0566280267	-0.071879
C	 1.0402647679	-1.9153641148	 0.0806430645	-0.229734
H	 0.8079080641	 2.06309879	 0.1869369426	 0.113747
H	-0.5730913293	 1.8963732033	-0.8938029791	 0.112574
H	-0.8081534003	 1.8359878769	 0.8500722242	 0.112576
H	-1.8485123931	-0.1538933818	-1.1371378751	 0.112575
H	-1.4925918998	-1.6344023603	-0.2514831008	 0.113747
H	-2.0839115332	-0.2142461867	 0.6066930342	 0.112575
H	 1.3308923777	-0.6065838024	-1.8869558389	 0.060968
H	 3.0861679271	-0.6859951594	 0.3994893359	 0.086347
H	 2.3511317704	 0.9462630053	 0.3568416295	 0.090133
H	 0.787276609	-0.7461573695	 2.1392256652	 0.060967
H	 0.1719269945	-2.5563424277	-0.0588214437	 0.090133
H	 1.9458920722	-2.5187427482	 0.1820072232	 0.086347
93.3137	195.6129	209.931	372.7531	394.499	429.4511	529.9469	587.2438	666.4784	741.1269	797.1902	849.9093	896.8537	898.6488	944.6356	958.3718	1000.1626	1006.1722	1014.9062	1024.2536	1085.9312	1099.2824	1111.3769	1152.2749	1188.8518	1190.1408	1208.0848	1222.4865	1241.8534	1254.0409	1306.4204	1405.879	1426.0587	1478.3814	1483.1704	1506.1741	1512.1458	1523.9229	1559.2292	3028.2713	3035.1281	3067.1902	3068.0376	3077.7984	3079.0313	3084.7513	3091.1119	3128.6786	3132.3947	3152.4608	3153.059
CC1(C)C2CC1C2	CC1(C)[C@H]2C[C@@H]1C2	
InChI=1S/C7H12/c1-7(2)5-3-6(7)4-5/h5-6H,3-4H2,1-2H3	InChI=1S/C7H12/c1-7(2)5-3-6(7)4-5/h5-6H,3-4H2,1-2H3/t5-,6+
