11
gdb 891	7.09891	2.27719	1.74028	3.0803	49.51	-0.2198	0.0181	0.2379	662.8337	0.079235	-376.582598	-376.576571	-376.575627	-376.612425	22.003	
N	-0.0584756773	 1.3837974302	 0.0070904218	-0.601348
C	-0.0999416213	-0.0002460296	 0.0162923606	 0.263295
C	-1.1095035912	-0.8593249549	 0.1124706204	-0.060903
O	-0.6247632816	-2.1522248803	 0.0726876502	-0.221157
C	 0.745454617	-2.0597056742	-0.0535538698	 0.503972
N	 1.5785502715	-2.9971757487	-0.1266307934	-0.579199
O	 1.0881484234	-0.7444847234	-0.0901174418	-0.2198
H	 0.4861355896	 1.755030845	 0.7800479033	 0.258316
H	 0.3340754613	 1.7487621899	-0.8558048318	 0.258322
H	-2.171305929	-0.722912603	 0.2096488168	 0.163401
H	 1.1065842776	-3.8965426011	-0.0798598363	 0.235101
139.9776	168.9924	325.2996	346.6657	517.9953	582.3659	645.7945	732.7041	771.9977	773.7164	781.8848	790.2783	902.6933	975.5224	1020.626	1104.9584	1196.2353	1223.515	1269.1861	1343.8333	1655.4886	1773.2212	1825.2371	3312.7234	3495.1989	3543.8909	3560.2635
NC1=COC(=N)O1	NC1=CO[C@@H]([NH])O1	
InChI=1S/C3H4N2O2/c4-2-1-6-3(5)7-2/h1,5H,4H2	InChI=1S/C3H5N2O2/c4-2-1-6-3(5)7-2/h1,3,5H,4H2/t3-/m1/s1
