19
gdb 2857	5.7668	1.42727	1.3009	0.9884	68.57	-0.2416	0.0924	0.334	1005.8191	0.170251	-310.897268	-310.888842	-310.887898	-310.930142	30.044	
C	 0.3940985579	 1.3989544593	 0.3079658146	-0.372328
C	-0.2537285777	 0.1163935672	-0.2246475589	-0.1859
C	 0.5051492667	-0.4811173701	-1.3925078594	-0.025449
C	 1.7210760039	-1.3599748837	-1.1481966664	-0.324111
C	 0.4391910689	-1.9468743611	-1.6933555848	 0.113676
O	-0.3577286677	-2.732971964	-0.8647594258	-0.234475
C	 0.0818650863	-4.0728605101	-0.7867137765	-0.22901
H	 1.4154769655	 1.2093812074	 0.6546109378	 0.115071
H	 0.4478405702	 2.1698790511	-0.4690261775	 0.110074
H	-0.1757428773	 1.8117222831	 1.1464734091	 0.108896
H	-0.3274023436	-0.6299341272	 0.5720935558	 0.107865
H	-1.2847365913	 0.3270724351	-0.536780799	 0.096855
H	 0.5610150846	 0.1644952058	-2.2664084693	 0.081041
H	 2.5856241966	-1.2744461461	-1.7976221922	 0.106806
H	 1.9517998285	-1.5888705187	-0.1122429755	 0.114502
H	 0.4296475705	-2.2588285673	-2.7397099844	 0.079492
H	 0.0667750078	-4.562130086	-1.7728058148	 0.104222
H	 1.1023503727	-4.1436804587	-0.3832351583	 0.107706
H	-0.6055189125	-4.6001962759	-0.1208876046	 0.125066
69.4596	115.1914	136.6348	195.6672	217.3699	258.9038	319.3136	377.3829	479.69	604.4039	750.1233	786.7929	823.0307	854.9716	953.2563	971.8352	1012.8831	1033.0707	1055.963	1096.7989	1117.3889	1143.893	1170.9607	1183.7442	1197.7151	1228.1368	1261.1556	1290.063	1341.0259	1389.6037	1408.7017	1421.2691	1472.3509	1484.9987	1487.9066	1494.0834	1497.4571	1508.4705	1509.4881	2980.3621	3027.8072	3029.3911	3030.7661	3076.2664	3076.7055	3099.7622	3102.7439	3115.8641	3126.1386	3130.3808	3214.3116
CCC1CC1OC	CC[C@H]1C[C@H]1OC	
InChI=1S/C6H12O/c1-3-5-4-6(5)7-2/h5-6H,3-4H2,1-2H3	InChI=1S/C6H12O/c1-3-5-4-6(5)7-2/h5-6H,3-4H2,1-2H3/t5-,6+/m0/s1
