13
gdb 2772	3.63293	2.98296	1.988	1.5786	49.87	-0.2547	-0.0524	0.2023	646.3751	0.100932	-381.565314	-381.558705	-381.557761	-381.596275	23.308	
O	 0.4182762597	 1.384478812	-0.123654357	-0.428377
C	 0.1691861917	 0.030023468	 0.0502259234	 0.103782
C	-0.125920403	-0.5687672787	 1.4510451189	-0.122615
O	-1.2168240474	-1.3605678408	 0.902357981	-0.291578
C	-1.2076771407	-0.5831520841	-0.3238511729	-0.016202
C	-2.4097836203	 0.3401050311	-0.2272475249	 0.159512
O	-2.3565650652	 1.533168035	-0.0331576834	-0.258193
H	-0.4140646248	 1.8529954282	 0.0392531449	 0.301534
H	 0.9787476295	-0.5174876664	-0.4399255616	 0.108264
H	 0.6363678998	-1.2041607965	 1.9104284783	 0.118885
H	-0.482506295	 0.1732423584	 2.1766871653	 0.113685
H	-1.2749413598	-1.2165998969	-1.2168685072	 0.099562
H	-3.3863467547	-0.1873893991	-0.2632927647	 0.111741
65.4244	147.8191	244.5778	312.989	360.4748	446.1551	577.0809	676.2968	762.3304	778.8676	908.2746	942.4169	985.5448	1017.8936	1064.1792	1069.1405	1152.3293	1183.838	1242.3705	1258.1811	1314.2556	1352.1389	1364.4451	1418.485	1478.4375	1512.9685	1803.8437	2917.6338	3024.3515	3036.2488	3075.9188	3099.6342	3709.4026
OC1COC1C=O	O[C@H]1CO[C@H]1C=O	
InChI=1S/C4H6O3/c5-1-4-3(6)2-7-4/h1,3-4,6H,2H2	InChI=1S/C4H6O3/c5-1-4-3(6)2-7-4/h1,3-4,6H,2H2/t3-,4-/m0/s1
