15
gdb 2807	4.36438	2.14307	1.61533	3.698	52.99	-0.2467	0.0505	0.2972	761.6842	0.124523	-382.754967	-382.747549	-382.746605	-382.786836	26.192	
O	-0.0052286993	 1.3133032888	-0.3293806216	-0.426855
C	 0.0747071416	-0.0782867584	-0.0814899399	-0.06047
C	-1.3088761673	-0.6069157682	 0.2706134586	 0.093654
O	-2.2377901431	-0.3117351346	-0.8114333368	-0.303974
C	-2.3668104984	-1.7122155513	-1.1451706161	-0.102922
C	-1.561835334	-2.1208327408	 0.1113196313	 0.048979
O	-0.38864408	-2.8766127775	-0.0622843368	-0.421539
H	-0.7174629236	 1.421329812	-0.9724144837	 0.290406
H	 0.4765375909	-0.624729258	-0.9460689411	 0.097353
H	 0.7648574594	-0.2238718997	 0.755357744	 0.112606
H	-1.6564546944	-0.1526332107	 1.2054802372	 0.086025
H	-3.4164907001	-2.0225119107	-1.1960686357	 0.104004
H	-1.8580527896	-1.9693526501	-2.0829572461	 0.106361
H	-2.1916394277	-2.5338229441	 0.9080747602	 0.084097
H	-0.6197420645	-3.8100437367	-0.0703380737	 0.292274
73.3371	113.2868	178.5322	218.6944	293.9962	403.7973	473.778	490.3933	545.1295	738.9286	841.8314	895.2356	916.1441	1013.2778	1041.5842	1059.6635	1078.7691	1104.3779	1154.5217	1181.9476	1191.5355	1225.1711	1282.4967	1310.1336	1329.3972	1347.1861	1395.9294	1434.5451	1442.7861	1500.2974	1513.4561	3008.9005	3016.8822	3026.8271	3048.157	3072.8656	3087.4161	3777.0286	3831.2363
OCC1OCC1O	OC[C@H]1OC[C@H]1O	
InChI=1S/C4H8O3/c5-1-4-3(6)2-7-4/h3-6H,1-2H2	InChI=1S/C4H8O3/c5-1-4-3(6)2-7-4/h3-6H,1-2H2/t3-,4-/m1/s1
