17
gdb 1278	7.59727	1.13243	1.03762	3.6036	62.09	-0.2422	0.0606	0.3028	1138.7938	0.148453	-343.084333	-343.075705	-343.074761	-343.118303	30.128	
C	-0.1263002703	 1.510918944	 0.0585176385	-0.377942
C	-0.0860959142	-0.0162491887	 0.1535610834	-0.166164
C	 1.0780120553	-0.5136356102	 1.0157406313	-0.13664
N	 1.1324254689	-1.9633593567	 1.0994821614	-0.340242
C	 1.2228083298	-2.6127669247	 2.3087774969	 0.446499
N	 1.4190117235	-3.9885096643	 2.1913150916	-0.564789
O	 1.1633913955	-2.0528303032	 3.3879680569	-0.389214
H	 0.7955395851	 1.9068522605	-0.38221876	 0.11488
H	-0.9621995152	 1.8482144375	-0.5612401935	 0.114903
H	-0.240013731	 1.9652448472	 1.048706495	 0.122731
H	-1.0235483381	-0.3961219477	 0.5760797441	 0.106405
H	-0.0045183304	-0.446738121	-0.8538618017	 0.085653
H	 2.0261888765	-0.1168618622	 0.6236774195	 0.096634
H	 0.9798658035	-0.1561258513	 2.0435117942	 0.149958
H	 1.420050359	-2.4660393468	 0.2752274768	 0.235527
H	 0.9926115694	-4.4491771872	 1.4004765915	 0.243111
H	 1.2563504528	-4.4642489851	 3.0663213241	 0.258691
31.2919	82.868	96.5962	232.5823	254.7184	310.6366	356.8396	359.0983	441.5163	541.8917	573.819	658.6182	753.6486	778.1655	872.2127	902.4461	957.0251	1044.0427	1090.3221	1127.3718	1151.1401	1185.8322	1270.2794	1310.7147	1333.0516	1344.5847	1409.2353	1416.1611	1487.6144	1497.2414	1499.7018	1512.5048	1546.7226	1627.5396	1803.0247	2995.3558	3015.5912	3032.5945	3060.1194	3097.7712	3107.7365	3115.9913	3567.5259	3629.3305	3680.1877
CCCNC(N)=O	CCCNC(=O)N	
InChI=1S/C4H10N2O/c1-2-3-6-4(5)7/h2-3H2,1H3,(H3,5,6,7)	InChI=1S/C4H10N2O/c1-2-3-6-4(5)7/h2-3H2,1H3,(H3,5,6,7)
