17
gdb 1755	5.37458	1.61439	1.4336	2.4027	61.35	-0.2572	0.0825	0.3397	903.0089	0.146021	-346.823548	-346.815393	-346.814449	-346.856022	28.623	
C	 0.1309171092	 1.3858294881	 0.0549262041	-0.223165
O	 0.1590178599	-0.0206649346	 0.0729193523	-0.233499
C	 0.5424698496	-0.5781292907	-1.1638424	-0.110354
C	 0.5466205517	-2.085942724	-1.0455038393	 0.407374
C	-0.707769018	-2.7161515792	-0.4857867785	-0.459671
C	 1.4314908246	-2.8436424931	-1.9415765431	-0.232488
O	 1.78050237	-2.6472454866	-0.57134459	-0.267763
H	 1.1220453189	 1.8112068781	-0.1683910562	 0.106942
H	-0.5827332349	 1.7713682131	-0.6911670975	 0.102232
H	-0.1807452787	 1.7195342517	 1.0474620912	 0.129469
H	-0.1617219502	-0.2700696457	-1.9581689888	 0.084675
H	 1.5475212487	-0.2342146181	-1.4549688157	 0.092592
H	-1.5717726847	-2.4885995737	-1.1197232042	 0.116197
H	-0.5933321231	-3.8007549552	-0.4236564259	 0.122447
H	-0.9107032394	-2.3224343673	 0.5128999213	 0.146674
H	 1.1617144738	-3.8621015477	-2.2193075837	 0.110772
H	 2.0584720226	-2.3214660852	-2.6644997358	 0.107566
83.2893	101.8194	179.286	190.9223	232.1008	325.6696	356.8999	373.6883	428.5844	507.0778	749.939	842.0933	905.7343	937.0494	971.617	1002.8009	1067.6588	1115.2414	1134.4382	1159.5215	1172.5875	1187.4111	1227.6258	1258.9185	1301.6883	1378.1489	1408.6975	1439.0149	1476.5685	1480.7235	1485.3712	1496.6418	1500.9463	1520.2497	1534.8412	2940.722	2969.0248	2996.2343	3012.9745	3043.2428	3074.5522	3113.4937	3116.2596	3136.2073	3158.203
COCC1(C)CO1	COC[C@@]1(C)CO1	
InChI=1S/C5H10O2/c1-5(3-6-2)4-7-5/h3-4H2,1-2H3	InChI=1S/C5H10O2/c1-5(3-6-2)4-7-5/h3-4H2,1-2H3/t5-/m0/s1
