11
gdb 922	5.82073	2.86312	1.91913	3.9263	55.68	-0.2327	-0.0614	0.1713	603.4675	0.08157	-339.489875	-339.484713	-339.483769	-339.51876	19.446	
O	-0.0323925954	-0.0760847854	 0.003278293	-0.3819
C	-0.0010426568	 1.1399976077	 0.0093364201	 0.383018
N	-1.173247031	 1.9093937522	 0.02891165	-0.325907
C	-1.1828778602	 3.2720511753	 0.0363559413	 0.006086
C	-0.0029250328	 3.9449955977	 0.0244721358	-0.049341
N	 1.1987963911	 3.2845072406	 0.005174219	-0.214559
C	 1.1978336391	 1.986803153	-0.001776207	-0.087599
H	-2.036544263	 1.3826705544	 0.0374179933	 0.270321
H	-2.1513248789	 3.7570931829	 0.0516866529	 0.141645
H	 0.02655994	 5.0267496724	 0.0298887688	 0.122384
H	 2.1489354778	 1.4593653892	-0.0170523172	 0.135852
169.6073	407.6861	438.5481	493.1944	557.8588	615.6305	719.0585	769.0467	817.6934	825.5843	929.3272	948.5747	988.5846	1056.8101	1143.1029	1230.1137	1239.7	1359.233	1409.9749	1490.7027	1561.5276	1651.572	1792.2198	3163.4337	3204.0569	3223.4955	3598.8687
O=C1NC=CN=C1	O=c1[nH]ccnc1	
InChI=1S/C4H4N2O/c7-4-3-5-1-2-6-4/h1-3H,(H,6,7)	InChI=1S/C4H4N2O/c7-4-3-5-1-2-6-4/h1-3H,(H,6,7)
