15
gdb 4460	3.46944	1.85427	1.22683	0.8493	64.2	-0.209	0.0323	0.2413	955.7602	0.118567	-399.854497	-399.846661	-399.845717	-399.886521	28.383	
C	 0.150221367	 1.4996339828	 0.062811122	-0.494613
C	-0.0439875867	 0.0320390813	-0.0149360898	 0.2544
C	-1.0991267134	-0.8165881595	 0.0118904388	 0.176924
C	-2.5552856151	-0.5255318084	 0.1409753144	-0.492373
N	-0.6366809238	-2.1388552745	-0.1062196037	-0.430524
C	 0.6424643189	-1.9984918551	-0.1950201341	 0.458645
O	 1.5741573758	-2.942141675	-0.3253570857	-0.400912
O	 1.107612362	-0.7459616574	-0.1522794708	-0.202167
H	 0.7707471099	 1.7829941565	 0.9211483584	 0.138812
H	 0.636081638	 1.8940028411	-0.8374638568	 0.138808
H	-0.8176496496	 1.994890562	 0.1682510471	 0.137666
H	-3.1074228396	-0.9042847486	-0.7261455511	 0.136856
H	-2.9741777839	-1.0148358467	 1.0271497191	 0.136852
H	-2.7424526664	 0.5479601431	 0.2229122086	 0.120983
H	 1.1063611168	-3.7868136416	-0.3428868562	 0.320642
126.3226	153.796	189.1951	223.6113	257.849	301.0903	365.9507	442.1513	520.5235	625.7714	640.9091	655.0069	747.4586	809.2213	966.075	992.6192	1051.3395	1063.1872	1068.3377	1149.0053	1212.0597	1236.918	1328.8604	1416.9414	1424.4007	1469.4688	1473.9962	1486.0896	1491.9505	1506.6118	1660.7387	1707.5902	3025.9945	3034.9154	3073.4305	3087.1294	3121.2462	3128.4191	3808.7846
CC1=C(C)N=C(O)O1	Cc1c(C)nc(O)o1	
InChI=1S/C5H7NO2/c1-3-4(2)8-5(7)6-3/h1-2H3,(H,6,7)	InChI=1S/C5H7NO2/c1-3-4(2)8-5(7)6-3/h1-2H3,(H,6,7)
