13
gdb 692	6.47529	3.78861	3.09072	2.6703	49.06	-0.2377	0.0756	0.3133	471.5514	0.109636	-286.438448	-286.433283	-286.432339	-286.466745	19.981	
O	 0.0268615189	 1.3951649803	-0.1019788866	-0.43579
C	 0.0340161852	-0.0000690148	-0.0119063756	 0.15803
C	 0.3151231918	-0.6653004411	 1.3971374435	-0.260655
C	-1.0838032517	-1.2755661656	 1.3316638997	-0.037134
N	-2.017742118	-0.1284592231	 1.1852687251	-0.353091
C	-1.3404465996	-0.6912190237	-0.0119194543	-0.078016
H	-0.6929375568	 1.681282588	 0.4777448399	 0.288671
H	 0.7092635256	-0.3743650669	-0.7842180347	 0.089441
H	 1.1177823325	-1.4048994536	 1.3517202177	 0.103789
H	 0.4938541054	 0.0297544999	 2.2211124789	 0.105241
H	-1.4295692415	-2.2131202342	 1.74831633	 0.095241
H	-2.9682973723	-0.4944974351	 1.1971263523	 0.232783
H	-1.9176223494	-1.0601492701	-0.8510918157	 0.09149
174.5983	351.5211	429.8199	519.9557	607.2607	677.3371	802.9586	819.0704	848.9545	898.7687	957.6451	959.6962	994.7334	1042.3962	1087.0606	1102.6106	1132.5814	1155.9506	1186.1566	1244.517	1279.321	1322.2089	1330.4439	1377.1369	1446.748	1473.0291	3064.9895	3093.6378	3126.1581	3184.0295	3199.9728	3487.1568	3746.3356
OC1CC2NC12	O[C@H]1C[C@H]2N[C@@H]12	
InChI=1S/C4H7NO/c6-3-1-2-4(3)5-2/h2-6H,1H2	InChI=1S/C4H7NO/c6-3-1-2-4(3)5-2/h2-6H,1H2/t2-,3+,4-/m1/s1
