17
gdb 1973	5.27803	1.69725	1.54148	2.6241	60.43	-0.2462	0.0758	0.322	853.6911	0.148037	-346.839066	-346.831517	-346.830573	-346.871068	27.402	
C	 0.4428104619	 1.4002693758	 0.2200803608	-0.398531
C	 0.0308856674	-0.0396654086	-0.006055609	 0.179409
C	 0.4909717186	-0.7500953497	-1.3000353375	-0.330465
C	 1.1707859458	-1.753391968	-0.3487524606	 0.14134
C	 2.6823928226	-1.8922727962	-0.3955183546	-0.064823
O	 3.1616950941	-2.4830250884	 0.7953520495	-0.421423
O	 0.7846596293	-0.9739383689	 0.814210092	-0.327594
H	 1.5078239915	 1.5400674536	 0.0104957323	 0.119309
H	-0.1321882108	 2.0674852336	-0.4316191016	 0.118127
H	 0.2554573407	 1.6931255796	 1.2580500221	 0.128639
H	-1.0436844352	-0.1586837881	 0.1892010663	 0.078072
H	-0.2980119308	-1.1474495569	-1.9390394885	 0.111371
H	 1.1881100063	-0.1656630038	-1.9066596448	 0.107022
H	 0.7057432231	-2.747218272	-0.3136460679	 0.081327
H	 2.9818849713	-2.5421579427	-1.2260314749	 0.105645
H	 3.1324255978	-0.8994228503	-0.5638368741	 0.078839
H	 2.7732500665	-1.970223499	 1.5153105905	 0.293736
56.4317	114.578	207.8586	239.6854	332.2834	385.0502	429.3715	467.1042	498.1003	697.4237	824.1688	872.4176	902.3486	919.4414	953.265	1033.9932	1047.7242	1084.183	1105.0758	1133.3826	1153.9044	1199.8579	1221.9972	1254.5756	1286.5274	1324.0527	1349.3882	1380.0786	1399.9747	1413.1217	1438.1643	1482.0069	1490.5555	1494.8173	1499.0559	2963.4658	3005.7946	3022.0274	3032.7989	3065.155	3068.2229	3105.2253	3112.2207	3132.6393	3781.2134
CC1CC(CO)O1	C[C@H]1C[C@@H](CO)O1	
InChI=1S/C5H10O2/c1-4-2-5(3-6)7-4/h4-6H,2-3H2,1H3	InChI=1S/C5H10O2/c1-4-2-5(3-6)7-4/h4-6H,2-3H2,1H3/t4-,5-/m0/s1
