13
gdb 307	9.37628	2.54337	2.24698	3.855	50.75	-0.2465	0.0387	0.2852	578.1159	0.108284	-286.519735	-286.513686	-286.512742	-286.549288	21.755	
C	-0.0649527246	 1.5866031502	 0.0195097513	-0.395476
C	 0.0110987282	 0.0678787558	-0.0150896839	 0.07997
C	 0.7181352161	-0.5892271349	-1.2404059836	-0.395008
C	 1.7274619507	-1.1631471003	-0.2151108458	 0.430526
O	 2.6922694474	-1.8777534927	-0.2510515317	-0.357961
N	 1.0708386614	-0.5301896475	 0.8131578519	-0.324725
H	 0.9092932177	 2.0292129197	-0.2108085755	 0.125032
H	-0.7943746065	 1.9495621364	-0.7119894159	 0.124859
H	-0.3773827381	 1.9444923231	 1.0064099737	 0.119638
H	-0.9735203155	-0.3692538782	 0.1902212805	 0.086027
H	 0.1422634315	-1.347874336	-1.7729539086	 0.131013
H	 1.1528440726	 0.1125453465	-1.9551515058	 0.1291
H	 1.2130147192	-0.5598037221	 1.8123694235	 0.247005
78.3024	243.7749	314.3399	366.8475	441.6665	493.1023	565.3367	712.9133	797.7662	899.6676	919.0659	969.6749	1059.0896	1070.9583	1101.0145	1172.2507	1191.5347	1201.9139	1288.1424	1382.913	1392.1226	1412.8722	1460.633	1490.7422	1497.166	1896.8534	3029.3299	3032.9803	3085.246	3101.307	3112.2337	3143.8583	3605.4166
CC1CC(=O)N1	C[C@H]1CC(=O)N1	
InChI=1S/C4H7NO/c1-3-2-4(6)5-3/h3H,2H2,1H3,(H,5,6)	InChI=1S/C4H7NO/c1-3-2-4(6)5-3/h3H,2H2,1H3,(H,5,6)/t3-/m0/s1
