6
gdb 174	10.78306	10.41182	5.2971	2.8915	28.58	-0.331	-0.0643	0.2667	239.8863	0.033398	-278.075775	-278.072348	-278.071404	-278.101859	10.82	
O	-0.024923526	 1.3239640631	 0.0095330834	-0.150183
C	 1.2540324794	 1.6470814639	-0.0011207866	 0.16829
N	 2.0560129184	 0.6280513156	-0.0141689357	-0.218215
N	 1.1946555035	-0.4534118336	-0.0118337279	-0.02647
N	-0.0044322565	-0.1103432447	 0.0014179993	 0.031042
H	 1.5256021011	 2.6908541558	 0.0019673375	 0.195537
616.3216	651.4263	708.6078	920.2914	955.1404	1004.7265	1056.6952	1172.6535	1287.812	1462.5195	1530.892	3292.7861
O1C=NN=N1	o1cnnn1	
InChI=1S/CHN3O/c1-2-3-4-5-1/h1H	InChI=1S/CHN3O/c1-2-3-4-5-1/h1H
