17
gdb 2301	7.87621	1.20969	1.12832	2.3887	60.22	-0.2435	0.0742	0.3178	1032.2202	0.148082	-346.82246	-346.814622	-346.813678	-346.855436	26.923	
O	-0.101493269	 1.454838447	 0.0502447821	-0.41872
C	 0.0043329359	 0.0405741534	 0.078107026	-0.071448
C	-1.3944409493	-0.5373530038	-0.1013824157	-0.19779
C	-1.4155364177	-2.0589989508	-0.0784231609	-0.024447
C	-1.2401221093	-2.7772258273	 1.2816244053	-0.076575
O	-2.4971394509	-3.4661665809	 1.1343584762	-0.271129
C	-2.7948072086	-2.7566667794	-0.0851819872	-0.089522
H	 0.7766370456	 1.8260692408	 0.1752179461	 0.286502
H	 0.663070876	-0.3276077838	-0.7260352141	 0.08491
H	 0.4329381246	-0.3082652974	 1.0324992771	 0.087851
H	-2.0418730216	-0.1411744897	 0.6908807267	 0.109423
H	-1.801692164	-0.1711439633	-1.0519783021	 0.108626
H	-0.7464554039	-2.4601536729	-0.846114168	 0.07828
H	-0.3979607005	-3.4742652723	 1.3686839815	 0.099949
H	-1.2383180198	-2.1095760698	 2.1554272151	 0.09579
H	-3.650282162	-2.07705525	 0.0334114092	 0.09774
H	-2.9974744856	-3.4392148099	-0.9191180771	 0.10056
53.9899	97.0779	109.0374	169.2412	267.2354	335.1166	380.0707	453.6159	756.6309	801.9639	880.0373	895.3839	959.2691	974.3309	1009.4656	1041.4644	1057.5287	1097.3243	1122.0438	1156.3483	1163.8999	1188.4201	1233.4039	1248.0173	1276.665	1309.9903	1314.0242	1326.1014	1371.8744	1404.507	1464.2431	1490.9715	1512.5736	1526.9268	1537.6874	2955.6499	2979.7271	2992.0572	3003.9691	3027.8587	3039.781	3047.6634	3060.115	3076.5439	3830.8139
OCCC1COC1	OCCC1COC1	
InChI=1S/C5H10O2/c6-2-1-5-3-7-4-5/h5-6H,1-4H2	InChI=1S/C5H10O2/c6-2-1-5-3-7-4-5/h5-6H,1-4H2
