14
gdb 1478	4.7756	1.52395	1.23069	4.2798	54.15	-0.2769	0.0295	0.3064	915.5776	0.112155	-361.717032	-361.709042	-361.708097	-361.74948	27.676	
O	 0.3208055457	 0.5487125949	 0.9068309076	-0.406157
C	-0.1171524426	 0.2758885117	-0.4126052496	-0.104371
C	-1.4868390117	-0.4195124686	-0.4560591921	 0.102962
O	-1.9159204039	-0.6125034706	-1.7874953198	-0.414869
C	-1.4511341184	-1.7298319559	 0.3580296016	-0.355542
C	-2.7611386928	-2.3588110476	 0.4867241858	 0.266923
N	-3.800938228	-2.8504646142	 0.5955773391	-0.303682
H	-0.1938470368	 1.2872563437	 1.2480040846	 0.294017
H	-0.1677731471	 1.1800532787	-1.0337753605	 0.113452
H	 0.6411488295	-0.3844037345	-0.8539980088	 0.106187
H	-2.2359355985	 0.2458915189	-0.0098593625	 0.107823
H	-1.3025032589	-1.2139545943	-2.2252714789	 0.286698
H	-0.7602850128	-2.4379025485	-0.1188846428	 0.13881
H	-1.0443158936	-1.5141033837	 1.3512288963	 0.167749
69.6527	132.417	155.7663	225.714	303.1047	309.5515	373.2817	401.4188	434.5509	482.2349	570.9236	832.5304	897.6201	968.4895	1021.3056	1073.3147	1096.2635	1112.2072	1175.7703	1194.8334	1303.7092	1319.0183	1373.7509	1384.6438	1411.0521	1420.8456	1465.0397	1500.7753	2365.7467	3011.3737	3027.8337	3042.7928	3064.4644	3093.6624	3795.7029	3818.81
OCC(O)CC#N	OC[C@@H](O)CC#N	
InChI=1S/C4H7NO2/c5-2-1-4(7)3-6/h4,6-7H,1,3H2	InChI=1S/C4H7NO2/c5-2-1-4(7)3-6/h4,6-7H,1,3H2/t4-/m0/s1
