18
gdb 2341	5.38372	1.40548	1.23858	0.8187	64.67	-0.2226	0.0765	0.2991	989.5541	0.159134	-326.934805	-326.926564	-326.92562	-326.967473	29.392	
C	-0.2555458511	 1.4243406669	 0.0628039903	-0.31368
N	 0.0322030782	-0.0009821037	 0.1024932006	-0.077647
C	 1.3930185107	-0.4212830537	-0.2073508019	-0.262556
C	 0.8573571811	-0.5646776148	 1.1770276702	 0.019908
C	 1.4249317062	 0.2374453398	 2.3292543345	-0.205586
C	 0.4338646451	 0.4033369319	 3.4775922208	-0.067842
O	 1.1061235653	 1.0710886222	 4.5341404317	-0.421159
H	 0.5804154938	 2.0770310072	 0.3599664557	 0.102027
H	-0.5354191661	 1.6923209533	-0.961315104	 0.123581
H	-1.1098304125	 1.64346193	 0.7120401664	 0.120258
H	 1.4956722513	-1.2820442903	-0.8637195643	 0.111468
H	 2.1416730858	 0.3563972496	-0.3621003747	 0.103048
H	 0.5125497257	-1.556223918	 1.4732971875	 0.085715
H	 2.3102432524	-0.2810752058	 2.7177483858	 0.111992
H	 1.7652137568	 1.224716164	 2.0039730371	 0.107253
H	-0.4442226224	 0.9746670812	 3.1374215002	 0.090882
H	 0.0716396249	-0.5880777406	 3.7961871701	 0.086258
H	 0.4883406748	 1.1803938607	 5.2627306439	 0.286082
82.5177	95.5721	155.5854	214.6979	263.556	285.7407	347.059	380.5275	442.806	531.0318	740.1241	786.2308	824.1134	919.1868	1010.8016	1032.0938	1049.5098	1070.3584	1096.1291	1116.5724	1135.7923	1164.6602	1188.9229	1205.3812	1234.711	1242.8513	1309.421	1322.6512	1341.8772	1426.9772	1451.9311	1460.1223	1483.7978	1490.0357	1507.6701	1516.8497	1526.4904	2963.4756	2974.7269	2992.9192	3040.8594	3061.8085	3079.6814	3086.0739	3096.1776	3103.6089	3166.4387	3831.407
CN1CC1CCO	CN1C[C@H]1CCO	
InChI=1S/C5H11NO/c1-6-4-5(6)2-3-7/h5,7H,2-4H2,1H3	InChI=1S/C5H11NO/c1-6-4-5(6)2-3-7/h5,7H,2-4H2,1H3/t5-,6?/m1/s1
