13
gdb 4371	3.96314	2.00907	1.33388	3.0127	63.59	-0.229	-0.0137	0.2153	846.5854	0.098916	-394.862027	-394.855607	-394.854662	-394.892336	24.995	
N	-0.016388941	 1.3606609821	 0.1733478805	-0.565679
C	 0.0202583242	 0.0020002682	 0.0568076868	 0.40754
N	-1.1632025827	-0.620620619	 0.0059132953	-0.357149
C	-1.1187831014	-1.9448028064	-0.0642383912	 0.447071
O	-2.313640655	-2.5546594013	-0.1110712144	-0.394264
N	-0.0439863213	-2.7357955912	-0.0984796204	-0.373552
C	 1.12728244	-2.0865296072	-0.0514448036	 0.019509
C	 1.2339666932	-0.7138984723	 0.0280460907	-0.212425
H	 0.8057694205	 1.8947377387	-0.0493613513	 0.259084
H	-0.9077251094	 1.7961101264	-0.0027253506	 0.264589
H	-2.1202510576	-3.5007106716	-0.1622831484	 0.302054
H	 2.0191639137	-2.7082814346	-0.0797987503	 0.113027
H	 2.1943109268	-0.2158433719	 0.0706361469	 0.090195
190.8724	222.376	340.3542	353.2602	454.2615	495.1051	514.3161	562.7867	579.2363	601.7706	733.484	797.1736	807.8131	830.2827	990.1348	1002.1486	1003.3939	1101.0659	1132.6348	1250.8924	1306.8236	1351.7268	1409.2288	1479.4667	1531.945	1609.7767	1635.4808	1659.0164	3156.737	3206.8272	3601.1007	3727.6345	3779.7607
NC1=NC(O)=NC=C1	Nc1nc(O)ncc1	
InChI=1S/C4H5N3O/c5-3-1-2-6-4(8)7-3/h1-2H,(H3,5,6,7,8)	InChI=1S/C4H5N3O/c5-3-1-2-6-4(8)7-3/h1-2H,(H3,5,6,7,8)
