15
gdb 3250	6.201	2.37357	2.1936	1.5784	61.05	-0.2252	0.0797	0.3049	651.4974	0.125002	-308.452306	-308.446418	-308.445474	-308.481637	23.486	
C	-0.0589254105	 1.4890020675	-0.0069524058	-0.334544
C	 1.2527015553	 0.7088369529	 0.0390393236	-0.344658
C	-0.0525384018	 0.000388056	-0.0797072415	 0.479622
O	-0.5509668726	-0.8218055798	 0.9933142392	-0.315991
C	-0.9385186055	-1.817020083	 0.0368635378	 0.103351
C	-1.9805553208	-1.2897879521	-0.8975807731	-0.298876
C	-0.5150351789	-0.9682387508	-1.1385638951	-0.212916
H	-0.4008636312	 1.9350605579	 0.9205813247	 0.126141
H	-0.3000324538	 2.0544124901	-0.9010300326	 0.117071
H	 1.9060579482	 0.7397828524	-0.8271974678	 0.114999
H	 1.7630088258	 0.6452888062	 0.9938586857	 0.126284
H	-0.7717483759	-2.8559775715	 0.2936270785	 0.105727
H	-2.4018354386	-2.0162469778	-1.5860712022	 0.113036
H	-2.6658082298	-0.5190378466	-0.5568718959	 0.11882
H	 0.01835932	-1.2242367615	-2.0437365955	 0.101934
162.5315	262.5133	294.7469	461.3701	494.8017	571.6217	751.0978	756.4522	801.9552	854.4901	872.4787	905.2051	939.3354	966.7279	978.6932	991.5179	1044.5026	1045.7207	1051.1489	1067.4276	1069.6968	1087.9393	1184.8826	1188.2367	1198.5825	1276.2297	1345.0373	1401.2353	1447.8065	1469.7307	1506.1986	3117.3058	3127.9299	3132.2648	3186.7373	3203.3868	3212.3846	3213.1661	3226.6327
C1CC11OC2CC12	C1CC21O[C@H]1C[C@@H]21	
InChI=1S/C6H8O/c1-2-6(1)4-3-5(4)7-6/h4-5H,1-3H2	InChI=1S/C6H8O/c1-2-6(1)4-3-5(4)7-6/h4-5H,1-3H2/t4-,5+/m1/s1
