15
gdb 4201	4.30838	1.6281	1.58404	1.5306	65.07	-0.2407	0.0057	0.2464	850.8724	0.119802	-399.716892	-399.710318	-399.709374	-399.747567	25.602	
O	-0.1059156347	 1.3529576671	 0.0438458782	-0.395415
N	 0.0369083791	-0.0506168838	-0.0074540072	-0.301937
C	-1.0841858121	-0.624317395	-0.0525310313	 0.490873
C	-1.506863451	-2.0855656483	 0.0102912229	-0.162811
C	-2.6105289785	-1.5565445217	 0.998665583	-0.244628
C	-2.5826449243	-0.3425936595	 0.025231524	 0.009648
O	-3.0723819411	-0.9060406398	-1.2039600687	-0.280692
C	-2.3341242932	-2.1543061846	-1.2876604548	-0.077155
H	 0.8117501653	 1.6457664947	 0.0617159983	 0.306772
H	-0.8239033601	-2.8988610537	 0.2414652851	 0.09443
H	-3.5511451477	-2.1110825682	 1.0440352179	 0.110456
H	-2.2195031735	-1.3330043918	 1.991839473	 0.121493
H	-3.0316157725	 0.6272539417	 0.2135760803	 0.106594
H	-1.7163019446	-2.1636916962	-2.1918454423	 0.1156
H	-3.0322045811	-2.998424091	-1.3140406783	 0.106773
127.3519	193.1345	296.8624	344.2029	409.6945	451.8279	527.3391	656.7816	698.0497	774.766	820.8818	848.9366	908.5516	915.8004	940.5231	970.7687	1000.6428	1039.5541	1059.5688	1084.3654	1118.6771	1141.5015	1182.8648	1224.9752	1241.1812	1250.5732	1280.207	1359.0362	1409.7358	1479.0277	1526.6988	1812.8736	3032.6289	3069.3605	3078.8898	3146.5762	3160.666	3185.8601	3815.8729
ON=C1C2CC1OC2	ON=C1[C@H]2C[C@@H]1OC2	
InChI=1S/C5H7NO2/c7-6-5-3-1-4(5)8-2-3/h3-4,7H,1-2H2	InChI=1S/C5H7NO2/c7-6-5-3-1-4(5)8-2-3/h3-4,7H,1-2H2/t3-,4-/m0/s1
