16
gdb 4555	3.97951	1.75972	1.23915	3.3323	70.24	-0.1821	0.0342	0.2163	969.2288	0.130288	-379.954522	-379.946301	-379.945357	-379.987601	29.184	
C	 0.0253609466	 1.4592087061	 0.1331715271	-0.341493
N	-0.0180925583	 0.0171885974	 0.072564906	-0.083112
C	-1.1496592297	-0.8005064183	 0.1074723958	-0.219652
C	-0.7394049931	-2.0717903027	 0.0259484694	 0.328827
C	-1.4294398689	-3.3814981719	 0.0116113231	-0.488528
O	 0.6496281099	-2.0828306129	-0.0614800476	-0.251432
C	 1.1026151796	-0.7794236104	-0.032588937	 0.454725
N	 2.3078651786	-0.3822951715	-0.0906014306	-0.618986
H	 1.0744203264	 1.7525463999	 0.0806385674	 0.180885
H	-0.5160002774	 1.9086821249	-0.7071563231	 0.129045
H	-0.4051854815	 1.8306059404	 1.0701533154	 0.129044
H	-2.1434597554	-0.3939063048	 0.1875323352	 0.141802
H	-1.2193082437	-3.9346693109	-0.911331694	 0.140913
H	-1.1090357272	-4.0120338198	 0.849312069	 0.140913
H	-2.5094840044	-3.2342386993	 0.0857270899	 0.135074
H	 2.9444470384	-1.169991886	-0.1650255459	 0.221975
50.9082	115.6219	168.4841	187.3155	259.2976	277.593	309.9138	514.6896	589.3517	597.9594	674.7789	695.1097	727.3542	750.362	846.1443	950.3267	997.9796	1048.5994	1067.1211	1073.7876	1158.2966	1163.3087	1218.5703	1295.0515	1338.1411	1417.3602	1433.1777	1466.6355	1470.5013	1495.9983	1497.1797	1513.2364	1729.6994	1776.6762	3022.7207	3026.6169	3075.0955	3075.3768	3126.064	3153.3512	3282.5656	3551.3145
CN1C=C(C)OC1=N	CN1C=C(C)O[C@@H]1[NH]	
InChI=1S/C5H8N2O/c1-4-3-7(2)5(6)8-4/h3,6H,1-2H3	InChI=1S/C5H9N2O/c1-4-3-7(2)5(6)8-4/h3,5-6H,1-2H3/t5-/m1/s1
