14
gdb 2249	3.91645	3.01251	2.09088	3.5669	57.93	-0.242	0.0113	0.2532	650.2804	0.113773	-324.574476	-324.568064	-324.56712	-324.604501	24.032	
C	-0.0190760184	 1.577375392	 0.0688518401	-0.495292
C	 0.0810401167	 0.0824724307	 0.0193467578	 0.170742
C	-0.8393073656	-0.8772971483	 0.7878499218	-0.323355
C	 0.6430054554	-0.9433742632	 0.9909665414	-0.035431
N	 1.3031779102	-1.637718078	-0.1193122212	-0.344592
C	 0.7412216256	-0.7596309285	-1.0710150171	 0.372537
O	 0.7970627667	-0.7369436165	-2.2674557627	-0.339698
H	 0.9518466546	 2.046564559	-0.1190168295	 0.13442
H	-0.7181933378	 1.942357909	-0.6907970065	 0.140521
H	-0.3786346006	 1.9181611119	 1.0446537216	 0.121612
H	-1.4208640693	-0.400002956	 1.5727933055	 0.121526
H	-1.3521990141	-1.6858932002	 0.2743702159	 0.121775
H	 1.1613673509	-0.7753390496	 1.9257559962	 0.114959
H	 1.2879272757	-2.6457120122	-0.2345636732	 0.240276
157.6182	181.5299	254.2487	283.959	446.0822	485.0874	593.9691	682.9002	720.5469	756.5635	838.2906	876.5604	906.3923	967.9671	981.097	1037.6902	1085.1727	1100.8478	1111.5861	1135.7601	1258.0229	1286.0725	1323.0051	1390.372	1422.389	1484.3193	1489.845	1497.2335	1895.4489	3035.1398	3100.6847	3106.28	3109.9316	3195.7586	3206.7107	3535.3718
CC12CC1NC2=O	C[C@]12C[C@H]1NC2=O	
InChI=1S/C5H7NO/c1-5-2-3(5)6-4(5)7/h3H,2H2,1H3,(H,6,7)	InChI=1S/C5H7NO/c1-5-2-3(5)6-4(5)7/h3H,2H2,1H3,(H,6,7)/t3-,5+/m1/s1
