13
gdb 400	5.918	3.08345	2.40985	1.9146	56.	-0.2444	0.0441	0.2885	564.5299	0.106988	-249.293044	-249.286674	-249.285729	-249.322437	23.611	
C	-0.0374453892	 1.5006891159	 0.0116328948	-0.459332
C	-0.0002197118	-0.017582723	-0.028314253	 0.112333
C	 0.7467474878	-0.6908532255	-1.1346487568	-0.259782
N	 1.2886073284	-0.7085530297	 0.2294251289	-0.328019
C	-1.1629917818	-0.6644119013	 0.5326791396	 0.337349
C	-2.1571725601	-1.1629230278	 0.9886739039	-0.456187
H	 0.8534319041	 1.9200829436	-0.467408076	 0.111879
H	-0.919591213	 1.8827227233	-0.5108746272	 0.136599
H	-0.0785956819	 1.8593040092	 1.0449151598	 0.135415
H	 0.4058090984	-1.6537844458	-1.5015881344	 0.129365
H	 1.2089299744	-0.0505523088	-1.8822491367	 0.113796
H	 2.0209041203	-0.0073714742	 0.3210550757	 0.231411
H	-3.0251154658	-1.6194421958	 1.3958172615	 0.195173
174.1565	201.0495	239.4389	352.1493	369.2182	535.8541	559.2925	613.1102	650.5572	663.1575	820.8805	896.534	934.8127	979.5672	1009.9227	1058.7101	1121.9671	1146.3198	1263.5722	1313.4669	1357.8126	1414.8927	1480.8664	1500.6737	1508.5661	2240.4628	3033.8009	3106.5699	3109.7313	3110.0559	3201.9649	3489.5226	3503.5439
CC1(CN1)C#C	C[C@]1(CN1)C#C	
InChI=1S/C5H7N/c1-3-5(2)4-6-5/h1,6H,4H2,2H3	InChI=1S/C5H7N/c1-3-5(2)4-6-5/h1,6H,4H2,2H3/t5-/m1/s1
