11
gdb 4656	7.09874	1.35768	1.1407	6.05	59.89	-0.2368	-0.0325	0.2043	938.9165	0.074072	-393.628214	-393.621653	-393.620709	-393.658902	24.039	
N	 0.043663556	 1.3332487872	 0.1444634324	-0.592635
C	-0.0529845761	-0.0226133768	 0.0456992211	 0.475322
N	-1.1240064537	-0.7526277055	 0.0274274359	-0.375599
C	-0.6230610937	-2.0576648399	-0.0006856935	 0.159067
C	 0.7328626507	-2.0301819705	-0.0060087363	-0.109166
O	 1.1164786189	-0.7152807172	 0.0247855608	-0.16966
C	-1.4579440688	-3.2050874828	-0.0257551192	 0.216209
N	-2.1221820301	-4.1524427606	-0.0477666612	-0.333024
H	 0.8818211935	 1.7447951161	-0.2365375214	 0.274376
H	-0.8084322356	 1.8226017412	-0.0824376077	 0.282619
H	 1.511601829	-2.770837281	-0.0314603308	 0.172491
146.3343	159.7027	298.3627	324.3565	405.9355	506.4854	531.706	556.888	584.7899	671.8129	754.3404	758.6534	774.021	952.9123	1005.7225	1124.2657	1137.1553	1237.2298	1294.7721	1426.33	1595.4564	1608.6111	1700.1847	2357.0821	3311.1901	3589.0263	3700.436
NC1=NC(=CO1)C#N	Nc1nc(co1)C#N	
InChI=1S/C4H3N3O/c5-1-3-2-8-4(6)7-3/h2H,(H2,6,7)	InChI=1S/C4H3N3O/c5-1-3-2-8-4(6)7-3/h2H,(H2,6,7)
