15
gdb 2888	5.5842	2.00849	1.74844	1.6996	62.21	-0.2521	0.0367	0.2888	747.6915	0.125538	-308.486687	-308.479867	-308.478923	-308.518704	24.83	
C	 0.1361849895	-1.1450856756	-0.3253665142	-0.48181
C	 0.0343782052	 0.0384089913	-0.1403953336	 0.346413
C	-0.0934674686	 1.4789602009	 0.0929507331	-0.048712
C	-0.6495815167	 1.8079931724	 1.5164990876	-0.250404
C	 0.3965847031	 2.7804319709	 2.0940225962	-0.208453
C	 1.6486221865	 2.400883714	 1.3015602159	-0.077335
O	 1.1726833414	 2.1409204877	-0.0131444845	-0.244703
H	 0.2286517887	-2.1887183793	-0.4986955913	 0.198525
H	-0.7299297953	 1.9078384204	-0.689399964	 0.108467
H	-1.6506122612	 2.2399556425	 1.4631034495	 0.113557
H	-0.710029435	 0.8952425552	 2.1127007465	 0.121441
H	 0.1236843335	 3.8181442612	 1.8796826174	 0.110428
H	 0.5212736091	 2.6749699018	 3.1745253166	 0.104647
H	 2.3939099245	 3.1970862558	 1.229973947	 0.110995
H	 2.1312718254	 1.5074789607	 1.7287813177	 0.096944
17.7394	166.1531	222.7572	273.8809	488.5324	542.289	593.6716	617.1532	662.5831	703.0811	814.8948	868.6487	913.1092	929.4436	944.0372	1001.3782	1044.5094	1089.213	1112.0978	1206.1233	1212.4112	1254.3914	1301.2522	1318.3025	1334.2875	1361.3671	1387.8874	1486.1494	1500.152	1519.1962	2231.6185	2980.2485	3037.5396	3056.7811	3076.6191	3096.2919	3107.281	3128.1619	3503.3799
C#CC1CCCO1	C#C[C@H]1CCCO1	
InChI=1S/C6H8O/c1-2-6-4-3-5-7-6/h1,6H,3-5H2	InChI=1S/C6H8O/c1-2-6-4-3-5-7-6/h1,6H,3-5H2/t6-/m0/s1
