10
gdb 893	7.14769	2.32787	1.76012	5.5589	44.88	-0.2178	0.0334	0.2512	639.068	0.067459	-396.491525	-396.485743	-396.484799	-396.521021	21.033	
N	 0.127434926	 1.3716688939	 0.1786605136	-0.589915
C	-0.0552043205	 0.0132416127	 0.0380526961	 0.339138
C	-1.108144505	-0.8040112548	-0.0461498489	-0.133669
O	-0.6343456419	-2.1212130026	-0.0400842707	-0.212385
C	 0.7160834174	-2.0719946462	 0.0205174796	 0.509024
O	 1.4667856806	-2.9930596251	 0.0230439107	-0.37177
O	 1.0932400664	-0.7443251003	 0.0772820577	-0.226768
H	 0.9268169566	 1.7186977861	-0.3375313343	 0.26975
H	-0.702406972	 1.911316879	-0.0251514916	 0.264762
H	-2.1703411276	-0.6589149927	-0.0974664922	 0.151833
180.6475	209.8509	337.0151	345.6181	564.274	617.4804	630.3647	656.5034	711.7493	772.4733	776.834	927.8644	984.3856	1080.3136	1103.7136	1146.4705	1309.5906	1401.7001	1633.1827	1765.9816	1943.287	3322.5308	3542.5887	3646.4751
NC1=COC(=O)O1	Nc1coc(=O)o1	
InChI=1S/C3H3NO3/c4-2-1-6-3(5)7-2/h1H,4H2	InChI=1S/C3H3NO3/c4-2-1-6-3(5)7-2/h1H,4H2
