12
gdb 4417	3.8819	2.10083	1.36313	3.0659	62.28	-0.2261	-0.0534	0.1727	818.0857	0.085329	-414.696069	-414.689769	-414.688824	-414.726735	23.719	
O	 0.0609643741	 1.3117726125	 0.0073603573	-0.387877
C	-0.0359536313	-0.011682689	 0.0009526674	 0.516075
C	-1.2139871218	-0.6890843974	 0.003988479	-0.31916
C	-1.0868227674	-2.1039344294	-0.0041748251	 0.036129
N	 0.0378919754	-2.7598339658	-0.0139183879	-0.323137
C	 1.2172318373	-2.0523513522	-0.0166924325	 0.432391
N	 2.403253124	-2.4854636326	-0.0258083039	-0.524672
O	 1.1402734382	-0.6228318316	-0.0088133486	-0.24176
H	 1.0006375136	 1.5454926387	 0.0033432413	 0.321169
H	-2.1612456955	-0.1737755706	 0.0119898407	 0.124993
H	-1.9939243152	-2.7074778023	-0.0023006463	 0.126929
H	 2.3685226786	-3.5031988202	-0.0311302115	 0.238921
94.2305	193.1478	352.1831	435.8919	475.9654	515.5521	537.831	567.4948	711.6102	763.2621	773.6638	778.3202	852.853	889.9577	965.3068	1007.7685	1042.4598	1095.3135	1192.2169	1248.2061	1351.1775	1416.5071	1455.3463	1587.895	1708.9738	1750.8829	3139.6524	3259.51	3525.7629	3766.1559
OC1=CC=NC(=N)O1	O[C@@H]1C=CN=C([NH])O1	
InChI=1S/C4H4N2O2/c5-4-6-2-1-3(7)8-4/h1-2,5,7H	InChI=1S/C4H5N2O2/c5-4-6-2-1-3(7)8-4/h1-3,5,7H/t3-/m0/s1
