15
gdb 4343	3.61083	1.95939	1.28019	1.1045	71.12	-0.2279	-0.0178	0.2101	916.0034	0.120727	-362.745829	-362.738874	-362.73793	-362.777138	26.364	
C	 0.0124591258	 1.4770868183	 0.0748987115	-0.466302
C	 0.0167806215	-0.0259602717	-0.0108056804	 0.332686
C	-0.1276737839	-0.6970762615	-1.2215890549	-0.188076
C	-0.1136929484	-2.0934677744	-1.2219866536	-0.054934
C	 0.0419276189	-2.7794028849	-0.0308754158	-0.221835
C	 0.1791894291	-2.0100934567	 1.130304287	 0.43211
O	 0.3331830553	-2.6443847184	 2.312645683	-0.419231
N	 0.1685007069	-0.6850749002	 1.1512690003	-0.412046
H	 0.9502233767	 1.8375878619	 0.5101999716	 0.13814
H	-0.1158487238	 1.9364280976	-0.9078724579	 0.119141
H	-0.7950969294	 1.8200409123	 0.7299303233	 0.138137
H	-0.2483802062	-0.140740708	-2.1434309031	 0.092303
H	-0.2244591412	-2.640200096	-2.1529803663	 0.106576
H	 0.0599421239	-3.8601130281	 0.0265085533	 0.10832
H	 0.4090590748	-1.9447358603	 2.9765918619	 0.295012
76.3422	200.6572	229.0567	301.3752	448.6474	462.9859	540.4089	544.7493	570.5683	633.2194	741.98	765.4374	813.0263	889.4275	952.4117	995.0571	1001.8364	1039.2796	1059.7295	1106.3295	1169.5697	1207.3875	1276.391	1336.5198	1358.1809	1409.8379	1469.7963	1476.0361	1500.9619	1512.1276	1628.2657	1650.3885	3039.8954	3098.3468	3127.1069	3178.8822	3201.2127	3216.2965	3763.2277
CC1=CC=CC(O)=N1	Cc1cccc(O)n1	
InChI=1S/C6H7NO/c1-5-3-2-4-6(8)7-5/h2-4H,1H3,(H,7,8)	InChI=1S/C6H7NO/c1-5-3-2-4-6(8)7-5/h2-4H,1H3,(H,7,8)
