16
gdb 2093	4.91506	2.43886	1.7375	2.2593	60.82	-0.2443	0.0284	0.2727	729.9612	0.138772	-325.795649	-325.789053	-325.788109	-325.825979	24.495	
C	-0.0297537849	 1.546262578	 0.006406128	-0.40558
C	 0.0227104596	 0.0180945368	-0.0001676905	-0.019039
C	 0.7288293513	-0.5140642127	-1.2445191818	-0.066392
O	 0.818594375	-1.946175778	-1.2340134554	-0.226935
C	 1.0226703012	-2.5140906585	-0.0200070726	 0.128865
N	 1.0332332507	-1.9843607279	 1.1271577478	-0.272607
C	 0.744145475	-0.55591877	 1.2269835002	-0.1511
H	 0.978780565	 1.9752575925	-0.0137524439	 0.119205
H	-0.5765119646	 1.9340413585	-0.8597210182	 0.11696
H	-0.5288319784	 1.9154556383	 0.9079069091	 0.123517
H	-1.0017515936	-0.3771935364	-0.0081667659	 0.090394
H	 0.195263389	-0.2562098873	-2.1633065296	 0.116206
H	 1.7455748307	-0.1017357908	-1.3119101539	 0.10822
H	 1.1893944785	-3.5831122571	-0.1414252773	 0.121795
H	 1.6888574423	-0.0183181015	 1.3951907728	 0.106779
H	 0.1428211932	-0.3960156939	 2.129528741	 0.109711
149.0477	182.4903	209.7304	291.9115	417.6545	463.556	501.4538	523.5849	783.8332	888.6004	899.2918	929.6335	943.8882	969.1258	996.5753	1005.3099	1116.048	1156.3023	1174.0397	1184.4656	1238.4791	1301.6606	1325.7243	1351.6664	1374.27	1406.3873	1411.4616	1426.4271	1484.4099	1497.6187	1499.0302	1510.1996	1738.304	3001.7148	3007.2705	3023.9655	3030.0701	3051.9877	3090.34	3096.5954	3103.1093	3156.5063
CC1COC=NC1	C[C@H]1COC=NC1	
InChI=1S/C5H9NO/c1-5-2-6-4-7-3-5/h4-5H,2-3H2,1H3	InChI=1S/C5H9NO/c1-5-2-6-4-7-3-5/h4-5H,2-3H2,1H3/t5-/m1/s1
