19
gdb 1465	5.72019	1.15024	1.00546	0.1229	76.63	-0.2394	0.0641	0.3035	1220.8476	0.169246	-273.773506	-273.763974	-273.76303	-273.809041	32.502	
C	-0.1080714366	 1.5359632076	-0.0766871057	-0.393413
C	-0.0751222115	 0.0092205155	 0.0350653117	-0.155448
C	 0.7368866994	-0.5223455918	 1.2424575499	-0.138794
C	 0.1305176656	-0.1067403539	 2.5985280678	-0.382018
C	 0.8739292472	-1.9777142985	 1.1643752882	 0.062827
C	 0.9617392835	-3.1773563734	 1.0978895875	 0.067213
C	 1.0800355564	-4.6268896275	 1.018255589	-0.497326
H	 0.9049886497	 1.9521809899	-0.1209771569	 0.113564
H	-0.6320158065	 1.844776363	-0.9865499656	 0.113269
H	-0.6220687311	 2.0011848884	 0.7697925763	 0.11923
H	-1.0962290164	-0.3864400707	 0.0999145425	 0.101574
H	 0.3589222324	-0.4130617247	-0.8777400657	 0.104229
H	 1.7436834213	-0.0827480805	 1.1781643268	 0.095852
H	-0.8910161747	-0.4884756701	 2.69508684	 0.120375
H	 0.7204876855	-0.5122464103	 3.4245665585	 0.121892
H	 0.1038305677	 0.9815556889	 2.7018720842	 0.113043
H	 0.7083772792	-5.1089727112	 1.9294910411	 0.144651
H	 0.5063453264	-5.0290956197	 0.1756438953	 0.144616
H	 2.1227917024	-4.936039281	 0.8840133349	 0.144663
15.8566	80.1536	96.679	144.0402	216.489	257.7307	268.0082	302.5515	343.7869	381.645	496.9431	535.775	725.5314	784.4367	843.5054	959.367	977.0675	1028.7403	1052.7127	1053.8737	1075.8677	1132.3767	1155.1372	1202.8074	1283.9823	1315.1555	1344.9526	1375.9222	1404.9098	1412.9424	1415.4748	1479.6354	1479.8021	1483.7806	1492.4041	1498.2399	1505.0522	1510.0987	2368.3329	2987.633	3023.6045	3030.8187	3033.2682	3040.81	3068.0228	3082.8242	3082.9742	3098.2638	3107.0122	3113.3505	3120.0833	15.8639	80.1527	96.6788	144.0399	216.4883	257.7305	268.008	302.5516	343.7872	381.645	496.9432	535.7751	725.5314	784.4366	843.5054	959.3671	977.0676	1028.7403	1052.7127	1053.8737	1075.8678	1132.3768	1155.1373	1202.8075	1283.9826	1315.1556	1344.9528	1375.9224	1404.91	1412.9426	1415.4747	1479.6352	1479.8019	1483.7809	1492.4045	1498.2402	1505.0526	1510.0991	2368.333	2987.633	3023.6044	3030.8187	3033.2682	3040.81	3068.0228	3082.8243	3082.9742	3098.2638	3107.0121	3113.3505	3120.0833
CCC(C)C#CC	CC[C@@H](C)C#CC	
InChI=1S/C7H12/c1-4-6-7(3)5-2/h7H,5H2,1-3H3	InChI=1S/C7H12/c1-4-6-7(3)5-2/h7H,5H2,1-3H3/t7-/m1/s1
