12
gdb 3881	7.70286	2.05262	1.62457	2.5045	52.	-0.1959	0.0546	0.2505	702.6858	0.092045	-356.709466	-356.702945	-356.702001	-356.739359	24.269	
N	-0.0274929339	 1.3793507729	-0.1361413627	-0.587296
C	 0.0509659637	-0.0115129749	-0.0501872814	 0.394811
N	-1.0480429949	-0.7463400672	 0.0556383093	-0.31797
N	-0.5836103178	-2.0366032243	 0.0242341991	-0.256205
C	 0.7568042492	-2.0951399073	-0.0787060086	 0.468342
O	 1.3538388127	-3.3063912801	-0.1111085987	-0.431432
C	 1.2308149437	-0.8003932645	-0.1338563091	-0.436748
H	 0.689826147	 1.8519207176	 0.3977442114	 0.242242
H	-0.9444296926	 1.7085381049	 0.1399837716	 0.24808
H	-1.2248971912	-2.8067615102	 0.0869241902	 0.273793
H	 2.3021461392	-3.1787091162	-0.2095903942	 0.312046
H	 2.2525383648	-0.4748222007	-0.2408479569	 0.090337
209.6665	248.5815	261.8554	289.9884	324.0771	443.1727	474.5215	614.2846	667.213	683.3568	711.597	769.8914	799.8353	992.0832	1053.1386	1087.0303	1165.2819	1196.4825	1207.3616	1356.5935	1459.809	1535.982	1597.7863	1626.6934	1649.917	3260.3004	3537.6414	3632.8632	3698.2112	3847.8558
NC1=NNC(O)=C1	Nc1n[nH]c(O)c1	
InChI=1S/C3H5N3O/c4-2-1-3(7)6-5-2/h1H,(H4,4,5,6,7)	InChI=1S/C3H5N3O/c4-2-1-3(7)6-5-2/h1H,(H4,4,5,6,7)
