15
gdb 3260	3.64521	3.49006	1.89514	1.0522	65.87	-0.2183	-0.0285	0.1898	673.7721	0.126853	-308.51457	-308.508412	-308.507468	-308.544942	23.146	
C	-0.0473072644	 1.4729396774	-0.0802271075	-0.140524
O	 1.2170352167	 2.1058147507	 0.0467101904	-0.23161
C	 2.0067316801	 2.1429801382	-1.116602154	-0.13231
C	 2.4706671685	 0.8234787526	-1.6649655452	-0.074414
C	 2.0386715438	-0.4102820356	-1.3664251546	-0.075431
C	 0.935223328	-0.8131290019	-0.4992578885	-0.056256
C	 0.0018726439	-0.0259860779	 0.0510290194	-0.08304
H	-0.6669807992	 1.8908605238	 0.7202718422	 0.113704
H	-0.5225715295	 1.7576124313	-1.0345353863	 0.10321
H	 1.5038323897	 2.7134587441	-1.9202827967	 0.09756
H	 2.8896708947	 2.7330115465	-0.8369044916	 0.120904
H	 3.2832300527	 0.9182927678	-2.3839766507	 0.092286
H	 2.5533397178	-1.2362417174	-1.8526757514	 0.086665
H	 0.8585330686	-1.8837405338	-0.3242700281	 0.087912
H	-0.7832088213	-0.4810481457	 0.6496087825	 0.091345
51.807	259.3925	354.6883	383.8994	412.3878	521.9253	635.6049	722.032	784.2084	841.655	880.5813	913.2489	926.2932	992.9416	1010.7116	1012.7774	1050.08	1065.0459	1165.592	1245.965	1253.5315	1268.4283	1331.0335	1383.3082	1413.4515	1418.6031	1454.0264	1469.8461	1480.7579	1683.2871	1716.0358	2924.159	2959.3882	3034.5863	3065.2461	3128.9664	3142.1844	3154.8855	3169.6421
C1OCC=CC=C1	C1OCC=CC=C1	
InChI=1S/C6H8O/c1-2-4-6-7-5-3-1/h1-4H,5-6H2	InChI=1S/C6H8O/c1-2-4-6-7-5-3-1/h1-4H,5-6H2
