9
gdb 331	5.74651	2.87292	2.03264	3.6178	43.93	-0.3037	-0.0279	0.2758	562.9596	0.061962	-280.273691	-280.267611	-280.266667	-280.303301	20.295	
N	-0.0440290296	 1.4869014574	 0.0645808103	-0.480742
C	-0.0169767459	 0.029745881	-0.0271660607	-0.247352
C	-1.3804494426	-0.5106566781	 0.1214048173	 0.324376
N	-2.4484749341	-0.9307360958	 0.2401772063	-0.291579
C	 0.6024593165	-0.4996761209	-1.2674308032	 0.281476
N	 1.1271183254	-0.8448540792	-2.2368901471	-0.298144
H	 0.9052331054	 1.8457396019	 0.0280283449	 0.260484
H	-0.5487681198	 1.8788521936	-0.7249569925	 0.262967
H	 0.5738497346	-0.3487081499	 0.8168868948	 0.188515
141.0586	216.8932	225.1607	279.3837	388.9296	515.0456	584.3189	618.7433	819.2791	871.0898	984.6494	1121.4901	1197.742	1311.1934	1389.9935	1661.5481	2356.9311	2378.5129	3043.673	3503.6035	3589.0743
NC(C#N)C#N	NC(C#N)C#N	
InChI=1S/C3H3N3/c4-1-3(6)2-5/h3H,6H2	InChI=1S/C3H3N3/c4-1-3(6)2-5/h3H,6H2
