14
gdb 1806	3.94011	2.68091	1.84155	5.3705	53.21	-0.2485	0.0216	0.2701	689.43	0.114014	-361.736259	-361.729402	-361.728458	-361.767103	25.51	
N	 0.1104487044	 1.0589836947	 0.078945607	-0.606316
H	-0.2284219662	 0.2105225503	-0.3582329277	 0.247925
H	 1.0969970409	 0.9471537448	 0.2790823762	 0.247923
H	-0.5412430032	 2.7651109934	-0.5392303479	 0.302477
C	-0.6583098543	 1.42792842	 1.2511885826	 0.144301
C	-1.400591735	 0.3872851821	 2.0692319107	-0.276218
C	-0.1953753976	 1.0580225891	 2.6483080222	-0.276219
C	-1.3469006026	 2.7712064466	 1.1285892599	 0.429029
O	-1.1223121206	 3.3802463915	-0.0428441852	-0.380222
O	-2.0307823751	 3.2482079502	 1.9984252276	-0.360502
H	-2.3733240512	 0.6782981262	 2.4464849576	 0.150547
H	-1.3076439002	-0.6434202831	 1.7435750083	 0.113365
H	 0.7247018757	 0.4876253741	 2.7201045552	 0.113368
H	-0.3507899251	 1.8038728201	 3.4182282336	 0.150541
68.3337	246.7189	262.6707	273.819	366.5966	387.1854	504.0633	554.8635	749.6018	762.1627	784.2541	810.6184	839.7952	893.2573	917.9189	958.1001	1008.6183	1069.0711	1093.5459	1183.5091	1202.7886	1239.0697	1292.5934	1329.8943	1428.9161	1445.0116	1478.623	1649.888	1855.1648	3136.4241	3139.3032	3231.0153	3243.8206	3506.5449	3526.9662	3605.7319
[NH3+]C1(CC1)C([O-])=O	NC1(CC1)C(=O)O	
InChI=1S/C4H7NO2/c5-4(1-2-4)3(6)7/h1-2,5H2,(H,6,7)	InChI=1S/C4H7NO2/c5-4(1-2-4)3(6)7/h1-2,5H2,(H,6,7)
