12
gdb 3151	4.48199	2.76175	1.95458	4.0641	51.6	-0.2514	0.0095	0.2609	637.6288	0.090134	-360.500454	-360.494253	-360.493309	-360.530581	22.144	
O	 0.0040798441	-0.0003410615	-0.041672159	-0.355444
C	 0.0187754946	 1.198476337	-0.0295236913	 0.37551
N	-0.9662757553	 2.1645842995	-0.0549251201	-0.34361
C	-0.0782000496	 3.333609988	-0.0143986374	-0.240559
C	 1.0791088552	 2.313885695	 0.0470219888	 0.287136
C	 2.3689968129	 2.335846854	 0.7341548503	-0.253394
O	 2.2666973844	 2.3715254368	-0.6975294909	-0.248969
H	-1.9710370543	 2.0897889576	-0.0242840451	 0.259742
H	-0.0893651332	 3.9424377245	-0.923384274	 0.130734
H	-0.2014621937	 3.9685693148	 0.8685866828	 0.12114
H	 2.7122261226	 3.2578345724	 1.2002234277	 0.125893
H	 2.7651197422	 1.4106970719	 1.1478708481	 0.141821
118.4415	203.4931	236.0145	295.2361	455.6219	497.5099	639.4299	733.1056	773.4724	866.3934	881.3114	945.3881	997.4298	1084.9442	1105.2846	1126.4983	1150.8075	1166.6768	1172.9692	1282.6241	1369.0627	1448.4341	1521.5294	1534.1864	1904.4493	3044.4796	3091.4936	3095.9184	3186.6442	3635.308
O=C1NCC11CO1	O=C1NC[C@]21CO2	
InChI=1S/C4H5NO2/c6-3-4(1-5-3)2-7-4/h1-2H2,(H,5,6)	InChI=1S/C4H5NO2/c6-3-4(1-5-3)2-7-4/h1-2H2,(H,5,6)/t4-/m1/s1
