19
gdb 2335	5.73672	1.2745	1.15247	1.335	68.03	-0.2516	0.0821	0.3337	1082.3199	0.170647	-310.906004	-310.897632	-310.896688	-310.938859	30.426	
C	 0.0222270234	 1.5408687196	-0.0847911596	-0.378935
C	 0.1954361196	 0.0203206631	-0.0459087879	-0.156512
C	 0.4598624521	-0.5151301307	 1.3671409044	-0.182655
C	 0.6185161995	-2.0206948489	 1.4114851102	-0.011277
C	 1.9515176457	-2.6629369224	 1.0662149835	-0.325665
C	 1.4317364621	-2.6865669	 2.4827678358	 0.088269
O	 2.0149352758	-1.8563126207	 3.4473994949	-0.417753
H	 0.9183788373	 2.0505196225	 0.2867405057	 0.112714
H	-0.1655731314	 1.8973944359	-1.1025774564	 0.108329
H	-0.8193158269	 1.8602771979	 0.5402968763	 0.112766
H	-0.7022059298	-0.4618163311	-0.4557695195	 0.089849
H	 1.023182115	-0.2751987308	-0.7031692352	 0.095036
H	 1.3576690312	-0.0461571006	 1.7834777376	 0.105063
H	-0.3671258288	-0.2198295449	 2.0275621265	 0.093534
H	-0.2632832474	-2.5733943162	 1.0947887476	 0.081648
H	 1.9725644648	-3.5840960589	 0.4937558667	 0.106752
H	 2.7778191078	-1.9862839201	 0.8700748763	 0.110209
H	 1.0664798306	-3.6381891136	 2.8698926988	 0.081855
H	 2.8878141397	-2.2079511202	 3.6499955943	 0.286773
81.4781	89.9591	128.7811	242.0962	255.1774	298.759	310.1373	389.8028	471.9435	568.0997	742.9585	769.4227	830.6649	865.8513	884.6404	903.2635	976.9103	1003.2232	1038.7541	1050.6647	1087.2654	1121.1221	1142.0092	1178.1104	1198.2498	1239.0334	1263.6893	1297.8444	1305.0347	1328.2017	1377.748	1406.3498	1410.6164	1426.5846	1482.7549	1490.3421	1495.9667	1499.0422	1511.1866	3012.469	3017.7681	3027.7005	3044.9494	3075.9364	3091.1225	3094.6228	3099.1947	3124.5375	3131.226	3213.1278	3809.1257
CCCC1CC1O	CCC[C@H]1C[C@H]1O	
InChI=1S/C6H12O/c1-2-3-5-4-6(5)7/h5-7H,2-4H2,1H3	InChI=1S/C6H12O/c1-2-3-5-4-6(5)7/h5-7H,2-4H2,1H3/t5-,6+/m0/s1
