21
gdb 1295	6.54138	1.00069	0.91782	1.4237	71.61	-0.261	0.0739	0.3349	1326.5598	0.192944	-312.133063	-312.123614	-312.12267	-312.167188	33.692	
C	 0.0259915098	 1.5835183569	 0.0347651031	-0.378251
C	 0.007485749	 0.0527165642	 0.0058955807	-0.165942
C	-1.4090652947	-0.5306146222	-0.000673772	-0.154074
C	-1.4398523233	-2.0613221294	-0.0353536945	-0.191189
C	-2.8550862289	-2.6489777663	 0.042815168	 0.136312
C	-2.8606466247	-4.1737992335	-0.0719381607	-0.400742
O	-3.5363885394	-2.2219872463	 1.2229141028	-0.428054
H	 1.0490726817	 1.9726328681	 0.0447852366	 0.10872
H	-0.4807576593	 2.0017191523	-0.8421931488	 0.112981
H	-0.4860896277	 1.9676669002	 0.9240070828	 0.113985
H	 0.5539760564	-0.3037783001	-0.8777531668	 0.090898
H	 0.5551644555	-0.3362924923	 0.875015606	 0.090425
H	-1.9583350303	-0.1872186605	 0.883665022	 0.105758
H	-1.9590277586	-0.1394528402	-0.8683378466	 0.088842
H	-0.9543110272	-2.4257941679	-0.9506453645	 0.091215
H	-0.8478772049	-2.4639578741	 0.80161749	 0.078784
H	-3.4546045095	-2.2291622947	-0.7754835313	 0.086135
H	-2.2609803741	-4.6251347914	 0.7290267145	 0.103881
H	-3.8812210077	-4.5577668168	 0.0087235667	 0.122246
H	-2.4383688225	-4.5027573013	-1.0270950591	 0.11428
H	-3.0706502597	-2.601025075	 1.9770463908	 0.273793
70.7134	81.3624	125.5673	155.4631	241.4336	246.8604	288.0762	292.9548	310.402	425.8714	482.3553	498.0628	737.7518	792.0672	844.1123	902.7028	918.7222	938.5481	1013.1215	1027.9572	1065.1804	1074.6177	1105.2836	1143.0125	1175.0095	1233.7489	1270.561	1297.1046	1324.9694	1341.4215	1345.3207	1385.3892	1398.3526	1405.4172	1413.5466	1421.4837	1475.4683	1486.6894	1492.6978	1495.9747	1499.4027	1500.4056	1513.6911	2987.7332	3006.7274	3015.0038	3020.91	3028.3234	3028.7515	3036.3627	3040.0484	3072.025	3092.267	3095.5708	3100.1366	3117.2226	3792.8474
CCCCC(C)O	CCCC[C@@H](C)O	
InChI=1S/C6H14O/c1-3-4-5-6(2)7/h6-7H,3-5H2,1-2H3	InChI=1S/C6H14O/c1-3-4-5-6(2)7/h6-7H,3-5H2,1-2H3/t6-/m1/s1
