17
gdb 1895	3.51483	2.91994	2.19637	1.4419	64.38	-0.2481	0.0747	0.3228	686.904	0.148548	-309.67203	-309.665257	-309.664313	-309.702169	26.574	
C	-0.0295701968	 1.4673083245	 0.0649272531	-0.514653
C	-0.0021074351	-0.0361871521	 0.0184225491	 0.294744
C	 0.6168780087	-0.9600369992	-1.0752153526	-0.250605
C	 0.0181431261	-1.9402686602	-0.0286613218	-0.094495
C	 0.6357335091	-1.0151538311	 1.0608491161	-0.284937
C	-1.2306670747	-1.009320316	-0.0281313999	 0.166776
O	-2.1803503534	-1.037045795	 1.0004415855	-0.45191
H	 0.9796538177	 1.8859343165	 0.144222949	 0.117217
H	-0.4949423488	 1.8789938304	-0.8374139823	 0.120301
H	-0.6088527323	 1.8171969814	 0.9266268264	 0.121249
H	 0.1469442387	-0.9391145481	-2.0633547237	 0.088666
H	 1.7068206128	-0.9484115108	-1.1496662532	 0.092421
H	 0.0381784196	-3.0300129234	-0.0595385964	 0.071642
H	 1.7274032395	-1.0047303845	 1.1272485479	 0.093062
H	 0.208229106	-1.0421260089	 2.069409102	 0.072285
H	-1.8044165924	-0.9893129794	-0.9594124454	 0.076918
H	-1.7292213147	-1.118570964	 1.846740526	 0.281318
182.2482	202.5433	246.6638	292.1827	343.0204	426.927	532.6003	608.2362	635.5637	747.2272	805.8821	857.0588	896.4314	904.7643	951.7797	997.6394	1013.4695	1022.7355	1067.1821	1091.0421	1138.0589	1155.9659	1171.4836	1200.0355	1221.3204	1230.334	1255.3338	1282.1835	1332.491	1409.3894	1451.9413	1489.0257	1489.8802	1504.7827	1546.7077	3025.6123	3031.7441	3047.3937	3072.7246	3091.1436	3093.8852	3094.1411	3111.3329	3115.462	3817.3841
CC12CC(C1)C2O	C[C@@]12C[C@@H](C1)[C@H]2O	
InChI=1S/C6H10O/c1-6-2-4(3-6)5(6)7/h4-5,7H,2-3H2,1H3	InChI=1S/C6H10O/c1-6-2-4(3-6)5(6)7/h4-5,7H,2-3H2,1H3/t4-,5-,6+/m1/s1
