6
gdb 827	5.68671	2.9472	2.94705	1.5146	26.67	-0.3831	-0.0244	0.3587	446.1697	0.022798	-430.448052	-430.442982	-430.442038	-430.476876	16.614	
F	 0.0122093761	 0.0626247576	-0.0175099249	-0.045284
C	-0.0127396916	 1.3918580813	 0.002341977	 0.268494
F	 1.2368870287	 1.8454218979	-0.0196956891	-0.04527
F	-0.6462353118	 1.8257602126	-1.0831162906	-0.045315
C	-0.7075608121	 1.8707567954	 1.2240335492	 0.155807
N	-1.2467816894	 2.2424435252	 2.1721773384	-0.288431
198.8823	199.6959	467.1605	467.9975	521.8242	630.189	630.7501	816.1523	1224.6947	1224.9288	1233.3718	2391.6565
FC(F)(F)C#N	FC(F)(F)C#N	
InChI=1S/C2F3N/c3-2(4,5)1-6	InChI=1S/C2F3N/c3-2(4,5)1-6
