9
gdb 3818	9.60222	1.94542	1.61768	1.5744	50.85	-0.2906	-0.0569	0.2337	667.9519	0.056798	-338.238743	-338.233551	-338.232607	-338.267872	18.222	
N	 0.0215115734	-1.1555692236	-0.0038850056	-0.323151
C	-0.0031344869	 0.0015411661	 0.0027788366	 0.206235
C	-0.0177081782	 1.4156985173	 0.0107584371	 0.04687
C	-1.0962493734	 2.2549263256	 0.0296735365	 0.011242
O	-0.6939665257	 3.5213272719	 0.031177162	-0.147103
N	 0.7024972764	 3.5658230759	 0.0130021927	-0.107418
C	 1.0904925693	 2.320274283	 0.0012572075	-0.03908
H	-2.1606102953	 2.0802038155	 0.0427680499	 0.186534
H	 2.1443456103	 2.0842613683	-0.0138833366	 0.165873
173.7299	183.474	513.8255	553.706	571.636	617.8405	669.3614	868.8622	877.9444	917.8429	932.1402	1020.7365	1169.4316	1197.0348	1299.4952	1358.0511	1484.6917	1625.4469	2358.9294	3260.8316	3276.4414
N#CC1=CON=C1	N#Cc1conc1	
InChI=1S/C4H2N2O/c5-1-4-2-6-7-3-4/h2-3H	InChI=1S/C4H2N2O/c5-1-4-2-6-7-3-4/h2-3H
