18
gdb 1122	4.6446	1.45012	1.43132	3.4322	65.8	-0.2393	0.0393	0.2786	972.5251	0.157934	-327.026488	-327.017308	-327.016364	-327.062373	31.389	
C	-0.0160791851	 1.3637190887	-0.2360152524	-0.382607
C	 0.0583240762	-0.1084999093	 0.1854231881	 0.053942
C	 0.7506740094	-0.2845555775	 1.5419910206	-0.382558
N	-1.2717548358	-0.7095299773	 0.2017209428	-0.314234
C	-1.6352197086	-1.7507358402	-0.6043212665	 0.409574
C	-3.0692386829	-2.231905026	-0.4316717811	-0.482675
O	-0.8780852656	-2.2671249429	-1.4075883307	-0.376427
H	 0.9854856908	 1.802064345	-0.2873538687	 0.119233
H	-0.4865772138	 1.4637738972	-1.2178908087	 0.12623
H	-0.598612811	 1.9518707728	 0.4838441874	 0.105351
H	 0.604374295	-0.673932901	-0.5741652856	 0.12778
H	 1.7631497131	 0.1303310767	 1.5158482405	 0.119211
H	 0.2004676252	 0.2341979075	 2.3367395537	 0.105341
H	 0.8188085223	-1.3425559296	 1.8092904494	 0.126258
H	-1.9516646417	-0.3330391021	 0.842774626	 0.235911
H	-3.6361763917	-1.6783130031	 0.3216655806	 0.106796
H	-3.5833280901	-2.1526964079	-1.393170741	 0.151444
H	-3.0529805157	-3.2901781811	-0.1580377744	 0.151431
13.3266	30.7349	95.6497	192.9508	225.6707	259.7067	309.0497	411.2471	434.5904	461.1813	461.2312	606.3123	636.5034	849.6242	909.0917	931.1318	948.5136	987.1719	1035.5174	1049.8793	1146.7247	1182.3252	1192.0578	1260.4479	1365.8999	1366.3093	1396.3253	1399.0887	1418.3774	1470.3867	1484.1025	1485.3494	1488.5883	1496.3605	1506.1452	1537.1043	1776.3646	3024.5404	3028.4904	3047.9411	3081.3129	3090.7328	3108.4347	3116.3908	3119.1585	3126.2112	3127.4868	3633.1559
CC(C)NC(C)=O	CC(C)NC(=O)C	
InChI=1S/C5H11NO/c1-4(2)6-5(3)7/h4H,1-3H3,(H,6,7)	InChI=1S/C5H11NO/c1-4(2)6-5(3)7/h4H,1-3H3,(H,6,7)
