11
gdb 892	7.22458	2.20437	1.6968	5.6891	48.4	-0.2028	0.0398	0.2427	668.2968	0.079953	-376.617653	-376.611591	-376.610647	-376.647296	22.423	
N	 0.118188625	 1.4192997954	 0.1537149622	-0.601355
C	-0.0138548025	 0.0381209737	 0.0160876751	 0.284107
C	-1.0691304102	-0.7882536866	-0.0476039125	-0.095013
O	-0.6269444102	-2.1078007917	-0.057077047	-0.209676
C	 0.7460489872	-2.1104752121	-0.0080600014	 0.491401
O	 1.4336967216	-3.0937745363	 0.0150751761	-0.401921
N	 1.1195549796	-0.7773166179	 0.0039982914	-0.395914
H	 0.6433640279	 1.8416440399	-0.6059981079	 0.255293
H	-0.7822831952	 1.8759256338	 0.2247433475	 0.257724
H	-2.130550804	-0.6254462492	-0.0881835405	 0.139516
H	 2.0552496509	-0.4869624689	 0.2300164767	 0.275837
175.3202	230.01	318.0387	349.6979	411.7914	541.9845	613.8259	647.0202	649.9968	761.4769	764.0075	796.9585	935.2332	1017.5718	1091.6539	1150.6298	1172.723	1281.3879	1344.61	1460.2373	1640.5435	1737.2225	1897.2008	3306.7718	3503.8454	3611.7045	3683.7309
NC1=COC(=O)N1	Nc1coc(=O)[nH]1	
InChI=1S/C3H4N2O2/c4-2-1-7-3(6)5-2/h1H,4H2,(H,5,6)	InChI=1S/C3H4N2O2/c4-2-1-7-3(6)5-2/h1H,4H2,(H,5,6)
