8
gdb 776	9.9632	3.97553	2.84165	0.3207	36.4	-0.261	-0.0285	0.2325	407.6505	0.051932	-333.464063	-333.459537	-333.458592	-333.491833	15.761	
O	 0.0028387201	-0.0545516175	 0.0033635535	-0.397362
C	-0.0135630819	 1.1527613055	 0.0096536703	 0.511966
N	-1.0791968673	 2.0426798373	 0.028608929	-0.285301
N	-0.6780467724	 3.3408378346	 0.0305344582	-0.069795
N	 0.5912558094	 3.3581689943	 0.013709061	-0.069796
N	 1.0275069248	 2.0714452945	 0.0007181875	-0.285301
H	-2.0584281762	 1.8132277886	 0.0414391612	 0.297794
H	 2.0126269635	 1.8688193627	-0.0129982409	 0.297795
226.6999	459.8997	470.1938	515.4273	716.1074	754.4844	754.6536	967.3922	1025.1458	1032.9297	1107.6861	1266.6189	1359.2303	1381.2817	1505.8506	1875.8425	3687.3842	3688.6626
O=C1NN=NN1	O=c1[nH]nn[nH]1	
InChI=1S/CH2N4O/c6-1-2-4-5-3-1/h(H2,2,3,4,5,6)	InChI=1S/CH2N4O/c6-1-2-4-5-3-1/h(H2,2,3,4,5,6)
