15
gdb 820	4.99843	1.86787	1.51199	1.6908	60.85	-0.2316	0.0017	0.2333	816.0754	0.124288	-341.769746	-341.76207	-341.761126	-341.802021	27.007	
C	 0.3882732345	 1.3624347069	-0.016791779	-0.479893
C	-0.2719086462	 0.0123297158	 0.0369536827	 0.368741
N	-0.6150890226	-0.5761141094	 1.1192837891	-0.190816
O	-0.272390614	 0.1724764865	 2.2542114542	-0.398653
C	-0.5406560808	-0.7197272506	-1.231841818	-0.076445
C	 0.1943730632	-1.9935250783	-1.5093283987	-0.222635
N	-1.2402056999	-2.0049889938	-1.2138690756	-0.312327
H	 1.3400469	 1.3410854987	 0.5237014244	 0.150941
H	 0.5722131024	 1.6743089934	-1.0466034701	 0.123161
H	-0.2351357679	 2.1121476213	 0.4806856352	 0.151023
H	-0.6157270022	-0.3722466441	 2.9702816456	 0.30729
H	-0.7895586448	-0.0781803035	-2.0747244402	 0.09745
H	 0.4611753705	-2.2507019817	-2.5309835222	 0.119362
H	 0.8878770281	-2.3355667377	-0.7458203868	 0.118914
H	-1.3843223604	-2.2612354036	-0.2384660105	 0.243885
62.959	82.4884	186.1223	220.1592	297.9248	363.2885	424.5886	459.3512	575.7117	630.6658	779.4552	846.3396	901.5376	960.2248	980.7021	1001.6741	1045.103	1057.6823	1109.3004	1139.6786	1186.8834	1228.5171	1276.8476	1316.4853	1388.4189	1401.4102	1423.02	1473.3324	1487.026	1500.7372	1722.6947	3044.672	3102.9982	3106.267	3126.8453	3136.6851	3197.5595	3490.4476	3820.441
CC(=NO)C1CN1	CC(=NO)[C@H]1CN1	
InChI=1S/C4H8N2O/c1-3(6-7)4-2-5-4/h4-5,7H,2H2,1H3	InChI=1S/C4H8N2O/c1-3(6-7)4-2-5-4/h4-5,7H,2H2,1H3/t4-/m1/s1
