16
gdb 4339	4.04059	1.78426	1.25687	2.4264	73.66	-0.2443	-0.0311	0.2132	961.1423	0.131409	-342.858741	-342.85097	-342.850026	-342.891926	27.371	
C	-0.0737912229	 1.5140696108	 0.0395226382	-0.46925
C	-0.0366175565	 0.0121059475	-0.0175752589	 0.33844
C	 0.0533338514	-0.6857841171	-1.2205844882	-0.222244
C	 0.0817467403	-2.0784633957	-1.1757971985	 0.338436
C	 0.1773118679	-2.9208179575	-2.4175108604	-0.46925
N	 0.0239816163	-2.7295417458	-0.0045962853	-0.30649
C	-0.060382903	-1.9700950384	 1.0859578312	 0.056977
N	-0.0943014522	-0.64058733	 1.1527265867	-0.306491
H	-0.0227619136	 1.9607644768	-0.9560210397	 0.120606
H	-0.9922079354	 1.8487593844	 0.5320726238	 0.147015
H	 0.76173574	 1.8881073201	 0.6396097555	 0.147014
H	 0.1000285582	-0.1586862282	-2.167207523	 0.096866
H	 1.0699787308	-3.5528432694	-2.3750836668	 0.147013
H	-0.6839667413	-3.5931671427	-2.4826741529	 0.147015
H	 0.2187611732	-2.3096209465	-3.321932183	 0.120606
H	-0.1072062634	-2.4990624783	 2.0359601015	 0.113737
50.052	50.647	175.0144	214.8418	283.4404	410.3751	448.1082	543.2736	561.8327	571.6327	779.5027	804.7497	886.3695	935.8441	989.495	1000.5379	1021.3463	1029.5494	1060.981	1062.5053	1184.3675	1250.3672	1281.6289	1353.4956	1376.1951	1406.479	1412.4655	1473.3405	1473.846	1479.8653	1486.4945	1505.8871	1585.3808	1628.772	3043.9688	3044.1639	3105.7798	3105.9265	3130.7775	3130.8849	3153.9089	3187.9256
CC1=CC(C)=NC=N1	Cc1cc(C)ncn1	
InChI=1S/C6H8N2/c1-5-3-6(2)8-4-7-5/h3-4H,1-2H3	InChI=1S/C6H8N2/c1-5-3-6(2)8-4-7-5/h3-4H,1-2H3
