11
gdb 2738	4.57099	2.33273	1.70178	0.7097	53.81	-0.2579	-0.043	0.2149	695.4405	0.07606	-343.202564	-343.196047	-343.195103	-343.233282	22.942	
O	-0.0745549112	-0.0064207461	-0.2441349596	-0.249216
C	-0.0364971079	 1.164122781	-0.0507192916	 0.34054
C	-1.0270307927	 2.2778072728	 0.2932491812	-0.185554
O	 0.0482066482	 3.2379015609	 0.2844449157	-0.273728
C	 1.0735751378	 2.2627651355	-0.0456923664	-0.166929
C	 2.1244867003	 2.131294228	 0.9394437122	 0.333596
C	 2.9879540804	 1.9954727517	 1.7641020398	-0.43134
H	-1.7891678413	 2.4751360463	-0.4709150762	 0.139168
H	-1.5082402061	 2.1832815931	 1.274815279	 0.145291
H	 1.4880528546	 2.4460283429	-1.0468073378	 0.136813
H	 3.755469608	 1.881594964	 2.4897930336	 0.211358
94.6967	125.6031	223.4271	362.6392	421.8516	517.1502	577.8243	621.71	687.8488	708.7221	776.8546	918.7482	1005.3794	1007.9113	1053.5833	1066.6153	1135.4693	1203.593	1295.582	1319.7803	1479.4498	1939.0428	2235.9248	3013.0157	3023.5814	3069.4227	3501.1745
O=C1COC1C#C	O=C1CO[C@H]1C#C	
InChI=1S/C5H4O2/c1-2-5-4(6)3-7-5/h1,5H,3H2	InChI=1S/C5H4O2/c1-2-5-4(6)3-7-5/h1,5H,3H2/t5-/m0/s1
