17
gdb 4083	4.12204	1.50681	1.19727	0.4903	68.06	-0.2378	0.008	0.2457	991.7163	0.14357	-400.967871	-400.960513	-400.959569	-400.99946	28.235	
O	-0.0460520868	 1.3688804713	 0.0168152316	-0.39778
N	 0.0555881016	-0.0343042278	 0.012873158	-0.200063
C	-1.0848048222	-0.6087465719	-0.0070510185	 0.372994
C	-2.4383665508	 0.0522213818	 0.0165323008	-0.301912
C	-3.3116937755	-0.6143059189	 1.0971068066	-0.0802
O	-3.3543973355	-2.0215651832	 0.9528195763	-0.240222
C	-2.0728443073	-2.6078939311	 1.0920324715	-0.07823
C	-1.1100023001	-2.1139432356	-0.0019808847	-0.277719
H	 0.8791686034	 1.6334253784	 0.042290811	 0.305807
H	-2.3494167707	 1.1241198676	 0.1965721791	 0.132887
H	-2.9216225042	-0.0916797575	-0.9584724433	 0.120728
H	-2.9271993767	-0.3470995427	 2.0955690172	 0.095964
H	-4.3451033575	-0.264370291	 1.0265767501	 0.111294
H	-1.6547040721	-2.3774020819	 2.0862008311	 0.094552
H	-2.2172945775	-3.6896127858	 1.0249003197	 0.110767
H	-1.4807690354	-2.4750041259	-0.9704674356	 0.115384
H	-0.1022007927	-2.5093797958	 0.1487906991	 0.11575
90.1912	185.4473	268.1804	315.6247	335.9178	401.196	404.8609	466.6337	518.4104	582.6391	690.4488	782.3741	816.9852	864.1239	923.6686	976.4879	1003.5679	1023.0083	1035.5442	1119.6994	1125.6307	1198.9194	1232.8438	1253.9085	1264.9653	1312.0078	1339.9938	1353.1982	1383.6592	1408.8027	1423.5147	1461.7006	1473.0533	1494.1541	1506.8613	1739.3408	2966.9223	2971.9525	3024.0349	3033.233	3089.8688	3092.2317	3105.0403	3133.464	3825.5179
ON=C1CCOCC1	ON=C1CCOCC1	
InChI=1S/C5H9NO2/c7-6-5-1-3-8-4-2-5/h7H,1-4H2	InChI=1S/C5H9NO2/c7-6-5-1-3-8-4-2-5/h7H,1-4H2
