15
gdb 3251	6.01815	2.34729	2.11789	2.1715	61.24	-0.23	0.075	0.3049	656.0406	0.126762	-304.6143	-304.608457	-304.607513	-304.643672	23.127	
C	-0.0565788081	 1.502158008	-0.0591829929	-0.299351
N	 1.2031962485	 0.7310162925	 0.0875159124	-0.374857
C	-0.0729939028	 0.0299226942	-0.001634693	 0.399992
C	-0.54007033	-0.9634947249	 1.0906078831	-0.294565
C	-0.9163373242	-1.9312829792	-0.0434480426	-0.036229
N	-1.9188322359	-1.2257280708	-0.8792912786	-0.331493
C	-0.4660539842	-0.9616224888	-1.0809756754	-0.160487
H	-0.3314786304	 2.0854404203	 0.8153148559	 0.120348
H	-0.27262394	 1.9816680988	-1.0106299994	 0.111693
H	 1.6912879857	 0.6910432789	-0.8050468872	 0.227363
H	 0.3046409684	-1.3053690398	 1.6928705539	 0.116201
H	-1.3657454816	-0.6500828981	 1.7336663534	 0.10891
H	-0.8592135061	-3.0122642079	-0.0359115637	 0.095468
H	-2.2008366814	-1.8747519737	-1.615045157	 0.226882
H	 0.005918712	-1.1219172494	-2.0439546989	 0.090125
148.1605	280.1775	327.345	410.6519	484.1978	582.9216	759.3807	813.6668	820.9768	837.9872	888.3446	907.5404	925.6977	954.042	973.3876	1002.1487	1037.9904	1057.7053	1103.4524	1108.99	1129.5556	1165.4224	1211.9046	1242.8662	1258.7932	1303.2665	1325.5443	1357.5138	1430.6927	1469.8853	1516.6515	3067.1339	3106.2741	3128.8119	3174.236	3191.1063	3197.5419	3457.5665	3482.5744
C1NC11CC2NC12	C1N[C@]21C[C@H]1N[C@@H]21	
InChI=1S/C5H8N2/c1-3-4(7-3)5(1)2-6-5/h3-4,6-7H,1-2H2	InChI=1S/C5H8N2/c1-3-4(7-3)5(1)2-6-5/h3-4,6-7H,1-2H2/t3-,4-,5+/m1/s1
