12
gdb 631	7.71528	2.80429	2.40124	3.5751	47.16	-0.2521	0.0176	0.2697	541.7218	0.097486	-302.557878	-302.551643	-302.550699	-302.587728	21.626	
N	 0.0577692801	 1.2692824927	 0.4426833174	-0.533281
C	-0.0387889171	 0.0621788565	-0.1770871622	 0.423379
O	 0.9103724374	-0.4889664045	-0.7098902809	-0.383522
C	-1.4028408654	-0.5674344533	-0.1563398213	-0.104204
C	-1.8580630456	-1.1894294572	-1.4360380678	-0.220302
N	-1.4452365022	-2.0266971427	-0.3144828009	-0.303306
H	 0.9413944159	 1.7509426418	 0.4216309973	 0.265694
H	-0.7389852912	 1.7323280397	 0.8426752548	 0.262912
H	-2.1378512354	-0.1527843077	 0.528901074	 0.088149
H	-2.9195339496	-1.2053143236	-1.6658477074	 0.121299
H	-1.1882403502	-1.0969926053	-2.2857985286	 0.134163
H	-0.4817057067	-2.3231551562	-0.4779618644	 0.249019
93.6615	156.4622	262.6499	275.1755	424.3272	577.1232	627.9204	771.8447	780.0852	855.8167	911.1226	987.5049	1014.7	1085.0298	1119.9348	1136.8936	1187.9895	1282.687	1309.507	1329.3029	1436.1912	1494.6818	1618.8743	1781.7003	3114.6187	3138.2965	3209.0031	3459.0715	3606.7244	3742.3784
NC(=O)C1CN1	NC(=O)[C@H]1CN1	
InChI=1S/C3H6N2O/c4-3(6)2-1-5-2/h2,5H,1H2,(H2,4,6)	InChI=1S/C3H6N2O/c4-3(6)2-1-5-2/h2,5H,1H2,(H2,4,6)/t2-/m1/s1
