19
gdb 3068	9.22174	0.98589	0.94687	1.7189	68.41	-0.2619	0.0928	0.3547	1262.5809	0.170556	-310.905322	-310.896963	-310.896019	-310.93867	29.355	
C	-0.1925476991	 1.5252131558	-0.1099582223	-0.380123
C	 0.0440807652	 0.0170587836	 0.0059691073	-0.165758
C	 0.746273382	-0.5762466679	-1.2192778809	-0.152784
C	 0.986658171	-2.0879052847	-1.1106567311	-0.221195
C	 1.6657515665	-2.6534614375	-2.3332891142	 0.100549
C	 1.3626473539	-3.9868978883	-2.8660736157	-0.181669
O	 0.8519141367	-2.8133646001	-3.5009978372	-0.237257
H	 0.7531158746	 2.0664203334	-0.2264260677	 0.113179
H	-0.8162894873	 1.7617436934	-0.979087273	 0.116177
H	-0.6950315232	 1.9209777411	 0.778204235	 0.110839
H	 0.6407038576	-0.1930746232	 0.9040028767	 0.09231
H	-0.9160313768	-0.4946084799	 0.154931324	 0.095887
H	 0.1499290796	-0.3789235539	-2.1190738427	 0.112408
H	 1.7073637264	-0.0650727784	-1.3710173759	 0.090635
H	 1.6062199935	-2.3048842636	-0.2293716706	 0.096901
H	 0.031647043	-2.6072799735	-0.9646803168	 0.100552
H	 2.6547248362	-2.2416451682	-2.5483306112	 0.087304
H	 2.117400777	-4.5343918211	-3.4294541423	 0.111724
H	 0.6202410031	-4.6073051969	-2.3647664414	 0.110322
62.0056	85.7505	122.0265	142.2035	248.5919	286.0442	327.1316	447.2638	476.7239	734.7512	774.9923	811.3927	865.7106	898.8214	936.0676	952.9278	1026.1908	1045.0412	1067.8867	1084.3883	1135.7028	1157.7545	1167.2348	1189.542	1246.9415	1272.5153	1296.5767	1315.6026	1330.8844	1355.1058	1396.6255	1412.0027	1449.2423	1470.9415	1485.6321	1498.0616	1500.0586	1512.2085	1531.0777	3006.994	3011.1583	3017.3116	3029.4239	3035.9267	3050.4783	3068.0577	3078.3951	3086.4915	3096.2264	3101.624	3163.7792
CCCCC1CO1	CCCC[C@H]1CO1	
InChI=1S/C6H12O/c1-2-3-4-6-5-7-6/h6H,2-5H2,1H3	InChI=1S/C6H12O/c1-2-3-4-6-5-7-6/h6H,2-5H2,1H3/t6-/m0/s1
