15
gdb 4098	1.92309	1.76749	0.93782	1.1893	70.87	-0.2395	-0.0542	0.1854	1166.5996	0.111675	-490.988764	-490.980436	-490.979492	-491.021929	30.492	
O	 1.1108532446	-0.8310473752	-0.0035967702	-0.379291
N	 0.0161045586	 0.0117151496	 0.2044999002	-0.209299
C	-1.0735360478	-0.6387670968	 0.0403435304	 0.302896
C	-1.2347301554	-2.1026846993	-0.3108273434	-0.163396
O	-2.6033303654	-2.4014583533	-0.0725989077	-0.255591
C	-3.3659308123	-1.2131207704	-0.2324441658	-0.149921
C	-2.4273063134	-0.0840102106	 0.1493748165	 0.30572
N	-2.883332202	 1.0634331529	 0.4777384554	-0.230083
O	-1.888317578	 1.9787677352	 0.781626591	-0.359591
H	 1.8584486049	-0.2460269961	 0.1637143136	 0.315484
H	-0.9539498695	-2.2775200095	-1.3625944909	 0.11958
H	-0.6134803235	-2.7502135099	 0.3136812154	 0.141906
H	-3.701769845	-1.096578655	-1.2764291429	 0.112592
H	-4.2480830152	-1.2701444548	 0.4090885233	 0.136996
H	-2.3961777505	 2.763019853	 1.0201158253	 0.311997
85.9026	157.7442	174.9058	203.6779	256.814	290.8162	392.5658	423.5602	459.2401	514.0472	549.8671	622.9225	663.0203	716.0955	808.6114	951.4245	982.7103	1019.2927	1028.5503	1041.2373	1120.4343	1150.5709	1202.7113	1223.18	1256.2054	1330.8992	1372.9456	1409.9636	1424.7497	1492.7115	1509.6844	1697.7312	1739.8916	2964.9645	2974.8373	3091.2929	3102.9294	3800.5548	3810.4383
ON=C1COCC1=NO	O[N][C]1COCC1=NO	
InChI=1S/C4H6N2O3/c7-5-3-1-9-2-4(3)6-8/h7-8H,1-2H2	InChI=1S/C4H6N2O3/c7-5-3-1-9-2-4(3)6-8/h7-8H,1-2H2
