19
gdb 1184	3.88855	1.74816	1.69232	2.64	67.66	-0.2455	-0.0172	0.2283	871.5557	0.16854	-310.941861	-310.932819	-310.931874	-310.975126	32.199	
C	-0.0773702273	 1.5400533018	 0.1599303504	-0.399175
C	-0.0021594895	 0.0230818339	-0.0450275076	-0.193012
C	 0.724198024	-0.4527995449	-1.3350016931	 0.169679
C	 0.0030193094	 0.0011637648	-2.6085704731	-0.410657
C	 2.2003367774	 0.0015204388	-1.3394704143	-0.424451
C	 0.7405303655	-1.9754393447	-1.2594113962	 0.15079
O	 0.2468980838	-2.7262883636	-2.0599376737	-0.254602
H	 0.9144605088	 1.9937728991	 0.2450621316	 0.120737
H	-0.6053956892	 2.0363355897	-0.6595949791	 0.124294
H	-0.6194318565	 1.7660239977	 1.0833732074	 0.119288
H	 0.4973253243	-0.4277419956	 0.8230935148	 0.096427
H	-1.0209119258	-0.384763146	-0.0564634116	 0.106933
H	 0.0367875634	 1.0890748592	-2.7138306492	 0.109871
H	 0.4684237082	-0.4416529905	-3.493105506	 0.125405
H	-1.0440764032	-0.3143248254	-2.6011576675	 0.122699
H	 2.729883158	-0.3450429676	-0.4449697515	 0.116023
H	 2.7262418755	-0.3891638247	-2.2165870746	 0.125611
H	 2.2718571405	 1.0919262896	-1.3696631336	 0.126688
H	 1.2703113626	-2.3711385316	-0.3588880029	 0.067453
72.5375	74.1542	185.98	224.2928	231.9291	264.9998	282.2551	332.0188	367.624	384.295	424.1644	615.5262	748.0532	786.056	861.6889	914.0662	952.6352	999.4393	1009.111	1023.2639	1074.4994	1089.2106	1208.9765	1221.6924	1268.8817	1333.503	1370.3899	1398.861	1406.6256	1416.0995	1435.294	1479.3705	1481.3531	1485.8406	1503.1279	1506.5349	1507.0002	1511.3602	1832.0695	2836.8834	3013.1271	3032.2324	3042.2555	3047.9167	3049.4266	3098.9529	3106.1391	3110.8602	3117.722	3119.1125	3121.0791
CCC(C)(C)C=O	CCC(C)(C)C=O	
InChI=1S/C6H12O/c1-4-6(2,3)5-7/h5H,4H2,1-3H3	InChI=1S/C6H12O/c1-4-6(2,3)5-7/h5H,4H2,1-3H3
