15
gdb 3254	6.00353	2.36675	2.13143	2.0118	60.79	-0.2577	0.082	0.3398	655.9084	0.125608	-308.463553	-308.457705	-308.456761	-308.492955	23.043	
C	-0.0012682862	 1.4244919976	 0.1672890169	-0.278175
C	 1.3177430906	 0.7438385332	-0.0392735717	-0.037513
C	 1.7623017202	 0.0568393015	 1.2629572802	-0.33239
C	 0.4581609134	-0.7667111965	 1.2002746013	 0.474815
C	 0.2406762499	-2.1519729164	 1.6094885354	-0.275208
O	-0.3805678121	-1.0615605084	 2.3071087837	-0.273373
C	 0.0097246767	-0.0675504305	-0.0578902353	-0.137397
H	-0.2658462011	 1.8283737035	 1.1412557919	 0.119451
H	-0.3682993244	 2.0065339252	-0.671922595	 0.113885
H	 1.9660609421	 0.9727073945	-0.8744982729	 0.091683
H	 2.6555727267	-0.5639662088	 1.1573160773	 0.109443
H	 1.8786508879	 0.7090725244	 2.1340712537	 0.109812
H	-0.4380027699	-2.7882897687	 1.0415246583	 0.113303
H	 1.0159480533	-2.6821853541	 2.162476971	 0.112341
H	-0.506176127	-0.5276177865	-0.891627465	 0.089324
138.3026	279.6902	349.0804	397.0581	487.0392	561.9881	756.2369	780.9213	811.2472	861.4466	884.193	906.1147	959.5685	971.3163	983.4279	1027.1378	1057.899	1084.7965	1099.398	1120.8301	1144.0039	1158.9794	1186.6615	1208.2987	1243.3581	1293.4913	1332.702	1444.0983	1477.7246	1493.8911	1539.3365	3051.6998	3072.8402	3106.4134	3114.2061	3157.1541	3185.5268	3198.053	3209.2716
C1C2CC3(CO3)C12	C1[C@H]2C[C@]3(CO3)[C@@H]12	
InChI=1S/C6H8O/c1-4-2-6(3-7-6)5(1)4/h4-5H,1-3H2	InChI=1S/C6H8O/c1-4-2-6(3-7-6)5(1)4/h4-5H,1-3H2/t4-,5-,6-/m0/s1
