12
gdb 3891	7.75156	2.04251	1.66914	6.2445	50.78	-0.2734	-0.0076	0.2658	699.6296	0.093034	-352.852117	-352.846051	-352.845107	-352.882318	21.317	
N	 0.0884643227	 1.2562091277	 0.001625888	-0.526699
H	 1.0933629902	 1.1214104395	 0.0249431922	 0.245681
H	-0.068014762	 2.1997266272	-0.3407430171	 0.244035
H	-2.1672302367	 0.1395625821	-0.6933808306	 0.292997
C	-0.4674101474	 1.1122808907	 1.3525771274	-0.266454
C	-1.9474758984	 0.9189281915	 1.2682308871	 0.434904
N	-2.569561395	 0.4126228922	 0.189690928	-0.226708
N	-3.8931374817	 0.3480612361	 0.4361483057	-0.091771
N	-4.0508552709	 0.8008118626	 1.634712288	-0.104524
N	-2.8596809479	 1.1710828172	 2.1834017183	-0.284417
H	-0.0233812116	 0.2187982233	 1.8075869667	 0.146145
H	-0.2679958011	 1.9460713698	 2.0393059463	 0.136811
87.2566	193.8053	259.8614	306.2635	468.7102	638.5285	689.6371	733.5156	749.7113	873.2025	985.9553	1008.8417	1044.6193	1065.3803	1088.4895	1115.1961	1182.2296	1255.544	1306.0998	1353.0609	1409.7347	1457.7662	1495.6647	1582.2456	1664.6614	3015.4571	3058.5121	3503.1119	3584.6727	3659.6748
[NH3+]CC1=N[N-]N=N1	NCc1[nH]nnn1	
InChI=1S/C2H4N5/c3-1-2-4-6-7-5-2/h1,3H2/q-1/p+1	InChI=1S/C2H5N5/c3-1-2-4-6-7-5-2/h1,3H2,(H,4,5,6,7)
