13
gdb 3710	3.59299	3.41486	1.78974	4.0696	55.13	-0.2902	-0.0326	0.2576	681.9821	0.101172	-340.615011	-340.608289	-340.607345	-340.645741	23.463	
C	 0.0277862047	 1.5222690285	-0.0767190134	-0.498596
C	 0.0051980802	 0.0331267906	 0.0133267808	 0.268993
N	-0.0349919742	-0.7348896823	-1.0415462262	-0.136628
O	-0.0442368167	-2.0196507584	-0.5740990655	-0.158022
N	-0.009496084	-2.0480610235	 0.7923523133	-0.136629
C	 0.0213892863	-0.8015565856	 1.1789974994	 0.268993
C	 0.0651838827	-0.4066984768	 2.617167191	-0.498596
H	 0.9294627993	 1.9303698225	 0.3921085846	 0.143132
H	 0.0059662456	 1.8363802124	-1.1213904733	 0.158982
H	-0.8342556794	 1.9598734836	 0.4378191303	 0.143129
H	 0.9633104147	 0.1805545759	 2.8359506973	 0.143129
H	-0.8004124266	 0.2098912778	 2.8816025191	 0.143131
H	 0.0668217974	-1.2946488847	 3.2512190824	 0.158982
120.6937	130.8248	225.7695	251.4908	313.4532	411.3638	637.6489	643.6766	708.2403	712.4293	922.4906	934.7019	984.3846	1042.9258	1053.7175	1079.3629	1083.0298	1241.4595	1406.04	1414.9883	1430.2937	1473.6043	1478.9004	1484.1967	1494.5309	1530.938	1634.1932	3041.3194	3041.7525	3095.4109	3096.2707	3144.3505	3144.8197
CC1=NON=C1C	Cc1nonc1C	
InChI=1S/C4H6N2O/c1-3-4(2)6-7-5-3/h1-2H3	InChI=1S/C4H6N2O/c1-3-4(2)6-7-5-3/h1-2H3
