16
gdb 4780	4.6538	1.38201	1.12174	2.8274	67.78	-0.1923	0.0358	0.228	1053.838	0.131787	-379.971876	-379.964031	-379.963087	-380.004859	28.911	
C	 0.0361362993	 1.5382310382	-0.1092939361	-0.364677
C	-0.0476599119	 0.0108598669	 0.0292751283	-0.292524
C	-1.4557503603	-0.4956347778	 0.013914297	 0.361467
N	-2.4367103249	-0.0809720106	 0.8006111111	-0.384755
C	-3.5305217966	-0.816021002	 0.4457447226	 0.339918
O	-4.7224264512	-0.6431167702	 1.0598467347	-0.439094
C	-3.2412953878	-1.6951436312	-0.5644133803	-0.218004
N	-1.8957812261	-1.4670068	-0.8256996393	-0.280391
H	 1.0733579402	 1.8781615429	-0.0344639559	 0.109837
H	-0.3653093101	 1.8684361945	-1.0722280316	 0.118747
H	-0.5471031346	 2.0194769024	 0.6792220734	 0.144733
H	 0.5171321567	-0.4751285534	-0.7753541954	 0.094042
H	 0.4315973709	-0.2920073613	 0.9689572057	 0.125491
H	-4.582018828	 0.0452988161	 1.7210055253	 0.298273
H	-3.8276286301	-2.4216638994	-1.0970244553	 0.126219
H	-1.3429416157	-1.9428611651	-1.5182404642	 0.260718
27.7229	141.5874	204.0366	280.846	332.1959	371.491	390.3107	464.0328	511.1939	618.1153	639.3362	695.3992	729.1139	753.9309	791.3711	967.4027	1021.1211	1026.0758	1089.0078	1095.3824	1105.8324	1176.8134	1258.3121	1308.5515	1310.414	1371.6318	1406.2701	1425.1179	1473.5207	1491.2938	1497.0687	1507.3789	1563.4624	1663.7114	3022.6291	3043.3306	3058.3312	3112.1343	3131.3219	3296.7753	3668.8196	3805.3458
CCC1=NC(O)=CN1	CCc1nc(O)c[nH]1	
InChI=1S/C5H8N2O/c1-2-4-6-3-5(8)7-4/h3,8H,2H2,1H3,(H,6,7)	InChI=1S/C5H8N2O/c1-2-4-6-3-5(8)7-4/h3,8H,2H2,1H3,(H,6,7)
