14
gdb 2356	5.58176	2.01229	1.70091	5.1729	53.37	-0.2485	0.0153	0.2639	733.1021	0.115284	-361.727711	-361.721315	-361.720371	-361.758479	23.01	
O	-0.1425822295	 0.0212422462	 0.468746209	-0.369351
C	-0.0376902717	 1.3187443262	 0.1450711468	 0.422237
O	 1.0037046383	 1.8548032312	-0.1236779097	-0.343379
C	-1.3854120474	 2.0338000589	 0.1087674553	-0.104533
C	-2.1142001802	 2.0643917778	-1.2690758921	-0.234168
C	-3.3685369549	 1.5689617064	-0.5080320173	-0.156664
N	-2.5031663772	 1.2183881558	 0.6515551516	-0.337267
H	-1.0989946771	-0.1195801781	 0.6455304681	 0.301129
H	-2.8510069027	 1.4959031343	 1.5631336628	 0.233576
H	-1.2707689109	 3.0296487455	 0.5478370453	 0.103013
H	-2.1792442023	 3.035508173	-1.7573509802	 0.126337
H	-1.7161345531	 1.332538927	-1.9739166555	 0.1318
H	-4.0776206024	 2.3775190822	-0.2953133616	 0.109452
H	-3.916383689	 0.7207598836	-0.9279903725	 0.117819
81.8526	136.0074	221.4357	314.9611	457.3723	615.087	686.6889	727.763	779.8589	818.4726	864.2904	938.1131	947.9137	974.7003	1019.8011	1045.1802	1096.8096	1134.3699	1210.4016	1234.5369	1253.8431	1261.5078	1307.0964	1348.5891	1375.9708	1431.1079	1488.0053	1523.6398	1872.7636	3031.6176	3063.6444	3084.1354	3094.2738	3154.6118	3477.8136	3529.376
[O-]C(=O)C1CC[NH2+]1	OC(=O)[C@H]1CCN1	
InChI=1S/C4H7NO2/c6-4(7)3-1-2-5-3/h3,5H,1-2H2,(H,6,7)	InChI=1S/C4H7NO2/c6-4(7)3-1-2-5-3/h3,5H,1-2H2,(H,6,7)/t3-/m1/s1
