15
gdb 4008	3.52629	1.21988	0.91678	1.289	69.79	-0.2408	-0.0319	0.209	1216.849	0.114999	-399.701038	-399.691869	-399.690925	-399.735353	31.602	
C	 0.018800963	 1.3863947868	-0.0538998143	-0.22677
O	-0.0116524782	-0.0196004681	 0.0242708516	-0.215193
C	 0.6128469665	-0.6280820669	-1.0667588478	-0.13446
C	 0.5648942903	-2.1364793067	-0.9550063534	 0.147493
N	-0.0054686377	-2.6666796811	 0.064902356	-0.146613
O	 0.0308385779	-4.0531768979	 0.0261007893	-0.38156
C	 1.1747886614	-2.8588271148	-2.0215105341	 0.331966
C	 1.7052919281	-3.4105089342	-2.950639535	-0.458085
H	 1.0501580805	 1.7731065356	-0.070982518	 0.106252
H	-0.5019436325	 1.7578173034	-0.9507880466	 0.106249
H	-0.4883525406	 1.7696167871	 0.8341197383	 0.133187
H	 0.1350963708	-0.3359154262	-2.0198094763	 0.10926
H	 1.6713387636	-0.3202272194	-1.1491151483	 0.109281
H	-0.4265718546	-4.2911767476	 0.840429501	 0.312265
H	 2.1682996214	-3.91754778	-3.7611694424	 0.206729
68.8996	81.0253	120.5517	166.601	233.2919	261.3014	281.2856	336.3883	373.9659	453.4959	480.8732	615.8725	648.2318	651.5836	691.5947	833.9811	1008.3918	1033.5017	1044.5404	1167.4154	1183.9973	1204.9236	1244.9566	1260.9569	1406.9816	1422.8175	1477.9631	1486.6297	1497.1426	1521.3376	1688.324	2221.3986	2937.2141	2953.7879	2971.1306	3015.1137	3121.897	3500.2612	3808.9117
COCC(=NO)C#C	COCC(=NO)C#C	
InChI=1S/C5H7NO2/c1-3-5(6-7)4-8-2/h1,7H,4H2,2H3	InChI=1S/C5H7NO2/c1-3-5(6-7)4-8-2/h1,7H,4H2,2H3
