12
gdb 1159	3.4075	2.31772	1.89688	3.2896	56.29	-0.2965	-0.0101	0.2864	714.3287	0.087111	-323.3444	-323.336715	-323.335771	-323.375674	27.481	
C	 0.0102092854	 1.539072658	 0.0396806408	-0.391184
C	-0.0080573371	 0.001459829	 0.0096396585	 0.032575
O	 0.7068483639	-0.4264036759	 1.1600534819	-0.413276
C	-1.3844584566	-0.5168117645	 0.0059225475	 0.332985
C	-2.5041469208	-0.9494497368	 0.0327790571	-0.461976
C	 0.6846912065	-0.4803451906	-1.2181395189	 0.273012
N	 1.2431270442	-0.860586189	-2.1551869783	-0.33274
H	 1.0461629156	 1.883377956	 0.05867577	 0.149751
H	-0.4950995573	 1.9454773172	-0.8378109945	 0.14727
H	-0.5010545134	 1.8735831974	 0.9441199372	 0.147204
H	 0.6310846289	-1.3859758245	 1.224401225	 0.299766
H	-3.4954327391	-1.3323308663	 0.0501694336	 0.216614
130.7473	174.5227	189.55	231.2029	274.4594	336.6303	384.5221	477.3734	518.7998	579.2946	612.6978	660.151	685.8237	692.1712	922.8932	953.1357	1053.3305	1164.1746	1196.2281	1363.7008	1404.2401	1479.0141	1485.9522	2240.9064	2356.0943	3063.654	3151.8366	3156.2822	3497.5833	3800.3097
CC(O)(C#C)C#N	C[C@@](O)(C#C)C#N	
InChI=1S/C5H5NO/c1-3-5(2,7)4-6/h1,7H,2H3	InChI=1S/C5H5NO/c1-3-5(2,7)4-6/h1,7H,2H3/t5-/m1/s1
