11
gdb 193	9.16324	3.7188	2.68951	1.3368	47.52	-0.2371	0.0082	0.2453	474.9666	0.086046	-285.330157	-285.32495	-285.324006	-285.358812	18.156	
C	-0.017942713	 1.4628855208	 0.0636415583	-0.485065
C	-0.0110345865	-0.0180128633	-0.0567600228	 0.390486
N	-0.1736332169	-0.74420077	-1.1181627783	-0.297274
C	-0.0750521932	-2.055410128	-0.6651301741	-0.112413
C	 0.1454508912	-2.0472175622	 0.6679085041	-0.040063
O	 0.189639322	-0.7424192224	 1.0767559243	-0.170479
H	 0.9356281844	 1.8310878716	 0.4559172702	 0.145905
H	-0.1890591487	 1.8961931892	-0.9218643812	 0.157784
H	-0.8065186987	 1.7995380635	 0.7445154824	 0.145906
H	-0.1703938781	-2.8965621105	-1.3329823207	 0.122545
H	 0.2847952977	-2.7958950285	 1.428224478	 0.142668
100.427	255.445	347.1485	629.413	688.2908	695.9879	761.1163	863.883	933.6503	935.2077	1009.4815	1067.2194	1113.5146	1145.0865	1166.82	1252.1355	1378.5183	1414.7053	1476.2045	1481.1159	1559.9075	1625.9335	3045.0553	3099.3502	3158.5541	3264.1362	3301.7017
CC1=NC=CO1	Cc1ncco1	
InChI=1S/C4H5NO/c1-4-5-2-3-6-4/h2-3H,1H3	InChI=1S/C4H5NO/c1-4-5-2-3-6-4/h2-3H,1H3
