15
gdb 3220	3.6725	3.11095	2.26834	2.2301	55.6	-0.2554	0.0656	0.321	631.0059	0.125628	-345.616998	-345.610505	-345.609561	-345.647062	25.03	
O	 0.2238281379	 1.4020842747	-0.0213298769	-0.441426
C	 0.0574155463	-0.008271698	-0.0368821885	 0.083919
C	-1.350107587	-0.5827957992	-0.0055732797	-0.096638
C	-2.1223833631	-0.1754501246	-1.2390910625	-0.301188
C	-1.1196161646	-1.2766283293	-1.3613833787	-0.05011
C	 0.2922833533	-0.6785392305	-1.4413808722	 0.098794
O	 0.5501476747	 0.2301497199	-2.4791851456	-0.443965
H	-0.6448874611	 1.8009037102	-0.1383161284	 0.292578
H	 0.7117679729	-0.4224645373	 0.7338192761	 0.090582
H	-1.8521612747	-0.962322078	 0.8760687962	 0.089969
H	-3.1637331138	-0.4785666145	-1.2396297478	 0.118386
H	-1.9361217996	 0.7677902009	-1.7457066181	 0.111069
H	-1.3931526465	-2.2834330424	-1.6498724574	 0.090497
H	 1.0701942263	-1.4503787464	-1.4059767528	 0.072142
H	 0.7196079789	 1.0749357345	-2.0359497938	 0.28539
129.9981	216.7689	270.6957	288.4905	442.6942	518.2529	575.8924	585.1669	732.0019	781.5556	813.6907	837.2729	920.9473	967.6241	988.6937	1017.3298	1051.9729	1070.4179	1085.9308	1098.9292	1137.9832	1173.5845	1204.5997	1253.7775	1278.1429	1324.3279	1352.8305	1375.6981	1401.6321	1412.31	1491.4026	3029.342	3082.1467	3119.6713	3181.8764	3194.6003	3210.1366	3709.9914	3815.9177
OC1C2CC2C1O	O[C@H]1[C@H]2C[C@H]2[C@H]1O	
InChI=1S/C5H8O2/c6-4-2-1-3(2)5(4)7/h2-7H,1H2	InChI=1S/C5H8O2/c6-4-2-1-3(2)5(4)7/h2-7H,1H2/t2-,3+,4-,5+
