10
gdb 282	5.47512	3.91202	2.28171	8.5052	41.06	-0.2349	-0.0376	0.1973	506.6426	0.073524	-338.530072	-338.524237	-338.523292	-338.559249	20.891	
N	-0.0056014586	 1.3643185157	 0.0079687075	-0.480302
C	 0.1096859342	 0.0601990904	 0.0008375486	 0.321464
N	 1.2012635937	-0.662504903	-0.0138587042	-0.480298
H	 0.9771018785	-1.6598268824	-0.0162714712	 0.298615
H	 2.1481836917	-0.3192554569	-0.0219277543	 0.273811
C	-1.2549265355	-0.7524903368	 0.0114870534	 0.406487
O	-2.2363853202	-0.0015495271	 0.0251643627	-0.456089
O	-1.0623065555	-1.9732484468	 0.0039515725	-0.456111
H	 0.7473257112	 2.0333674704	 0.0037700239	 0.27381
H	-0.9891584095	 1.6424551566	 0.0194563911	 0.298613
129.6039	258.4724	357.2422	386.3741	469.3487	538.4287	582.5047	589.1278	778.4489	797.1801	805.3934	839.0381	1058.4931	1115.8695	1303.0426	1410.1304	1482.5841	1589.2179	1759.5138	1848.3017	3413.1659	3438.7708	3660.3493	3662.7486
NC(=[NH2+])C([O-])=O	NC(=[NH2])C(=O)[O]	
InChI=1S/C2H4N2O2/c3-1(4)2(5)6/h(H3,3,4)(H,5,6)	InChI=1S/C2H4N2O2/c3-1(4)2(5)6/h3-4H2
