12
gdb 915	5.64138	2.86433	1.89976	3.2154	61.04	-0.2142	-0.0473	0.167	626.3181	0.092406	-323.407987	-323.402581	-323.401637	-323.437096	20.68	
N	-0.0281624242	 1.3318860544	 0.0101299001	-0.535089
C	-0.0337997534	 0.0621601381	 0.0033302965	 0.386491
O	 1.175640092	-0.648413917	-0.0076663864	-0.237224
C	 1.202067389	-1.9979426592	-0.0150332677	 0.085929
C	 0.0958713573	-2.7598632947	-0.0124983212	-0.193174
C	-1.1807949262	-2.0940314494	-0.0012891863	-0.074157
C	-1.2383450711	-0.7458490197	 0.0062638584	-0.146221
H	 0.9268963847	 1.6903288199	 0.0063353694	 0.22081
H	 2.2185723361	-2.3725469638	-0.0231180582	 0.136601
H	 0.179778531	-3.8378735517	-0.0187718195	 0.113911
H	-2.0914361077	-2.6835628277	 0.0010180283	 0.115763
H	-2.1707056774	-0.1965654493	 0.0147978267	 0.126361
138.3111	351.6115	426.5471	492.3813	532.4139	620.8825	714.9001	781.1953	785.3305	837.0886	864.558	936.9655	950.5206	996.54	1009.269	1053.3255	1108.0478	1177.2919	1254.2362	1299.744	1403.8153	1455.4635	1601.9618	1677.6025	1739.6703	3187.9775	3209.7463	3227.0418	3235.2533	3491.6395
N=C1OC=CC=C1	[NH]C1=CCC=CO1	
InChI=1S/C5H5NO/c6-5-3-1-2-4-7-5/h1-4,6H	InChI=1S/C5H6NO/c6-5-3-1-2-4-7-5/h2-4,6H,1H2
