14
gdb 3621	5.44299	3.7289	3.4507	1.8913	58.33	-0.2278	0.0765	0.3043	493.0965	0.116433	-287.349937	-287.345518	-287.344574	-287.377721	18.771	
C	-0.0582090854	 1.5924125587	 0.1192007799	-0.245809
C	 1.4838067689	 1.5325139717	-0.0342185789	-0.07044
C	 2.0051631282	 0.5996699089	 1.0779500201	-0.037175
C	 0.9564343217	-0.4581042627	 1.0826742901	-0.037174
C	 0.0141680189	 0.0502776883	-0.0275556583	-0.070447
C	 1.35419999	 0.187765796	-0.8227036101	 0.027342
N	 2.1667118962	-0.6131765388	 0.2042832267	-0.181673
H	-0.4758470119	 2.0106415885	 1.0399577803	 0.097019
H	-0.5314622889	 2.0577413804	-0.7516572175	 0.101232
H	 2.0893209597	 2.3805986656	-0.346069178	 0.074672
H	 2.6820412908	 0.809377303	 1.8970211644	 0.093841
H	 0.7562153076	-1.1330698165	 1.9056886366	 0.093842
H	-0.8301080921	-0.5638446585	-0.3328375451	 0.07467
H	 1.5009277064	 0.0374880754	-1.8899171504	 0.080099
399.7911	539.8308	736.0124	744.0823	788.2703	798.3092	816.6671	852.7223	852.894	875.8628	915.2059	935.5091	972.7925	982.1614	1011.061	1037.1766	1067.4603	1071.5919	1109.8563	1141.1285	1178.7884	1216.6892	1224.6887	1228.8549	1234.575	1277.2703	1317.5343	1349.8023	1484.7628	3043.9289	3102.2751	3134.0925	3140.0987	3148.1186	3183.2961	3195.1806
C1C2C3C4C1C2N34	C1[C@H]2[C@H]3[C@H]4[C@@H]1[C@@H]2N34	
InChI=1S/C6H7N/c1-2-4-3(1)6-5(2)7(4)6/h2-6H,1H2	InChI=1S/C6H7N/c1-2-4-3(1)6-5(2)7(4)6/h2-6H,1H2/t2-,3+,4-,5+,6-,7?
