16
gdb 2446	4.08131	3.47782	2.69104	0.3056	59.38	-0.2102	0.0806	0.2907	586.1368	0.140044	-325.7298	-325.724353	-325.723408	-325.758693	22.049	
C	 0.1127676492	 1.5062697156	-0.2346466937	-0.208874
C	 1.613285184	 1.3043751628	 0.0787737455	 0.124113
C	 1.1225661754	 0.100969319	 0.9069872404	-0.181029
N	-0.0794314995	 0.0218774629	-0.0092628958	-0.120565
C	 0.3664745437	-0.6774309572	-1.23205026	-0.181772
C	 1.5285866812	 0.0627123134	-1.9498508591	-0.080962
O	 2.3309448837	 0.83555281	-1.0545117485	-0.273008
H	-0.408644927	 2.0674469855	 0.5453703162	 0.109908
H	-0.1835265803	 1.8879210012	-1.2144971237	 0.108477
H	 2.2139830563	 2.0991131524	 0.5291523499	 0.075189
H	 1.7609240419	-0.786292381	 0.9229195486	 0.102967
H	 0.8006848339	 0.3549011023	 1.9216673388	 0.102893
H	 0.6600669795	-1.6909185439	-0.9397454628	 0.110217
H	-0.4800785656	-0.7702016612	-1.9223624099	 0.104409
H	 2.2011371556	-0.6410687244	-2.449445486	 0.109333
H	 1.1202387181	 0.7249829227	-2.7260860901	 0.098703
200.0934	329.8336	446.3384	460.6616	469.8186	631.6041	796.7988	823.0674	824.527	839.4956	908.5081	920.4731	942.1119	970.9626	999.7033	1051.3887	1082.2649	1112.4095	1156.2152	1179.8698	1241.2246	1250.2742	1255.9275	1263.5559	1287.7148	1300.6377	1352.0417	1367.2722	1406.4178	1481.5747	1495.8248	1506.6727	1529.3599	2996.6724	3031.9287	3044.4153	3059.1677	3068.1573	3075.9868	3084.5708	3110.0946	3116.5345
C1C2CN1CCO2	C1[C@H]2CN1CCO2	
InChI=1S/C5H9NO/c1-2-7-5-3-6(1)4-5/h5H,1-4H2	InChI=1S/C5H9NO/c1-2-7-5-3-6(1)4-5/h5H,1-4H2
