11
gdb 955	6.04127	2.91204	1.96491	2.4022	53.76	-0.2562	-0.0416	0.2146	595.6777	0.081975	-339.501361	-339.496327	-339.495383	-339.530088	19.027	
O	 0.1015691805	 1.3097952545	 0.118204495	-0.386578
C	 0.0694989375	-0.0278746205	 0.0610815435	 0.458547
N	 0.0867029913	-0.5804850949	-1.1563861333	-0.340991
C	 0.0538857479	-1.9131731763	-1.1868154868	 0.018124
C	 0.0049016062	-2.6841591429	-0.0322694598	-0.145453
C	-0.0082324498	-1.9828870635	 1.1699048778	 0.018981
N	 0.0235990279	-0.6527475682	 1.2362855473	-0.282408
H	 0.1327499332	 1.6179419615	-0.7977434498	 0.306067
H	 0.0675929541	-2.371578361	-2.1730854605	 0.121637
H	-0.021476316	-3.765315946	-0.0656827836	 0.109259
H	-0.0458303929	-2.5063743927	 2.1228946401	 0.122816
192.7823	421.5878	454.1396	534.303	582.0979	599.5459	651.1037	819.9018	834.8476	892.2138	1003.0373	1004.6402	1014.0652	1097.2432	1103.5789	1203.3557	1275.525	1365.6506	1384.6871	1476.9383	1499.8023	1615.8699	1636.6403	3155.6629	3158.6536	3222.5531	3782.638
OC1=NC=CC=N1	Oc1ncccn1	
InChI=1S/C4H4N2O/c7-4-5-2-1-3-6-4/h1-3H,(H,5,6,7)	InChI=1S/C4H4N2O/c7-4-5-2-1-3-6-4/h1-3H,(H,5,6,7)
