12
gdb 2259	4.15409	3.11046	2.11522	2.2974	51.78	-0.2623	0.0144	0.2767	608.5618	0.089574	-360.469291	-360.463236	-360.462292	-360.498908	22.847	
O	-0.0888468744	 1.4562998258	 0.0524330155	-0.436975
C	 0.0014413077	 0.089955337	 0.0675501585	 0.251294
C	-0.2441060149	-0.7994231225	-1.1625707691	-0.350023
C	-1.086740212	-0.9494121121	 0.0605852419	 0.041836
O	-0.3617713787	-1.7567571333	 1.0303031998	-0.273002
C	 0.6145566189	-0.7629474728	 1.1432148305	 0.388704
N	 1.5908452415	-0.6546810509	 1.9170902027	-0.559256
H	 0.7269458514	 1.8117525618	-0.3186473437	 0.302869
H	-0.7076252056	-0.2530757609	-1.9790716708	 0.132252
H	 0.4462484252	-1.5880836954	-1.44519323	 0.132583
H	-2.1612440932	-0.890948594	 0.1570336969	 0.135606
H	 1.6593559742	-1.4532380127	 2.5500600577	 0.234112
177.6302	224.0644	299.8441	349.8807	458.2037	481.7617	629.6348	697.4894	745.5083	856.3175	867.5523	898.5017	928.7835	935.6644	1002.8763	1020.9285	1052.9243	1071.4373	1168.441	1242.2249	1275.1243	1321.6044	1426.7697	1498.3955	1839.5296	3121.0778	3218.2595	3231.135	3480.9348	3795.9057
OC12CC1OC2=N	O[C@]12C[C@H]1O[C]2[NH]	
InChI=1S/C4H5NO2/c5-3-4(6)1-2(4)7-3/h2,5-6H,1H2	InChI=1S/C4H5NO2/c5-3-4(6)1-2(4)7-3/h2,5-6H,1H2/t2-,4-/m1/s1
