11
gdb 1381	8.65446	1.51492	1.28924	6.2626	52.59	-0.2514	-0.0893	0.1621	841.7272	0.07707	-376.588479	-376.581318	-376.580374	-376.620363	23.53	
N	 0.2628042991	 1.2925389883	 0.0049688056	-0.382444
C	 0.0371149897	 0.0482699114	 0.001760692	 0.085396
N	-1.2453492373	-0.5063758078	 0.0108059778	-0.33321
C	-2.473970881	 0.1392868733	 0.0266513685	 0.340474
O	-2.6654641965	 1.3247814091	 0.0357738982	-0.27685
C	-3.6344612453	-0.8814616105	 0.0318265939	 0.084161
O	-4.7806387827	-0.5416301074	 0.0451006183	-0.195329
H	 1.2674760685	 1.4623081269	-0.0034110579	 0.237724
H	 0.7963786034	-0.7438095856	-0.0086724443	 0.104372
H	-1.2739158858	-1.5146811545	 0.0054582955	 0.258353
H	-3.3408229622	-1.9596650833	 0.0221560124	 0.077354
63.938	106.742	174.9724	195.5451	287.2835	386.9715	538.0184	583.7799	610.4136	789.0296	827.5104	953.4525	987.7772	1019.531	1065.9268	1167.2844	1253.8713	1424.1014	1430.1333	1544.3528	1736.4457	1835.7969	1858.6547	2827.5462	3037.2495	3501.1887	3622.2019
N=CNC(=O)C=O	N=CNC(=O)C=O	
InChI=1S/C3H4N2O2/c4-2-5-3(7)1-6/h1-2H,(H2,4,5,7)	InChI=1S/C3H4N2O2/c4-2-5-3(7)1-6/h1-2H,(H2,4,5,7)
