16
gdb 1126	5.02567	1.67693	1.32561	6.4355	57.38	-0.246	0.0311	0.2771	893.6488	0.137025	-362.957295	-362.94969	-362.948746	-362.98903	27.757	
C	-0.0975460175	 1.6100543214	 0.0088370924	-0.390374
C	-0.01983191	 0.0809338766	-0.0091722477	 0.018133
N	 0.8738956261	-0.474408141	 1.0334525342	-0.522781
H	 0.637900532	-0.079156272	 1.9409779097	 0.239543
H	 0.2406609441	-2.1132812935	 0.8122236813	 0.314619
H	 1.841089386	-0.2277691866	 0.8475725501	 0.245483
C	-1.4090314536	-0.5631702283	 0.1415114008	-0.316498
C	-1.4618554062	-2.0869292487	-0.0375673301	 0.393182
O	-0.4158773647	-2.7649275335	 0.4520996951	-0.373456
O	-2.3933016735	-2.6386325594	-0.5627577023	-0.333248
H	 0.8977642301	 2.0536721723	-0.0998007627	 0.11447
H	-0.7248540679	 1.9846061941	-0.806112563	 0.130554
H	-0.5266505082	 1.9665412582	 0.9529612624	 0.117119
H	 0.4046696332	-0.2391588083	-0.9688847969	 0.107896
H	-1.8028976661	-0.3313695757	 1.1419158785	 0.120561
H	-2.1104798739	-0.1359488055	-0.5774209918	 0.134797
90.0453	122.9918	230.4911	255.5464	325.9568	347.9608	400.6109	446.7755	481.8202	596.7133	689.9485	847.1007	874.8011	910.847	924.1257	959.3274	981.0275	1028.9167	1083.7499	1150.7755	1175.4523	1272.1095	1301.677	1303.5719	1373.1266	1407.0525	1414.6635	1462.4358	1493.1603	1496.4617	1497.4617	1649.1404	1858.0888	3014.4088	3025.9479	3039.0213	3095.8452	3106.7905	3120.5948	3240.4606	3482.3101	3567.7725
CC([NH3+])CC([O-])=O	C[C@@H](N)CC(=O)O	
InChI=1S/C4H9NO2/c1-3(5)2-4(6)7/h3H,2,5H2,1H3,(H,6,7)	InChI=1S/C4H9NO2/c1-3(5)2-4(6)7/h3H,2,5H2,1H3,(H,6,7)/t3-/m1/s1
