11
gdb 4698	6.61705	1.40759	1.16145	5.0286	63.03	-0.2336	-0.038	0.1957	925.377	0.074215	-393.630217	-393.62366	-393.622716	-393.66093	23.929	
N	 0.1103934802	 1.2961707363	 0.1466775596	-0.589438
C	-0.0342543799	-0.0486122164	 0.0504795939	 0.486532
N	-1.1507435625	-0.7291266659	 0.0163774941	-0.324061
C	-0.7327062522	-2.0394063698	-0.0131454655	-0.168098
C	 0.6271906373	-2.1003036471	-0.0016879738	 0.206922
O	 1.0904844703	-0.7867190831	 0.0411163404	-0.206421
C	 1.5625297709	-3.1453473881	-0.0277814585	 0.217239
N	 2.3208183875	-4.0227574931	-0.0509082576	-0.338979
H	 0.9905853875	 1.6855313302	-0.1509138231	 0.279943
H	-0.7118150364	 1.8317925376	-0.0811107312	 0.284699
H	-1.4292424227	-2.8623494808	-0.0448147583	 0.151661
141.5778	158.1404	298.0425	352.4125	406.4391	469.0576	506.86	563.2465	576.9436	648.0704	752.786	769.5812	899.6629	981.4002	1005.4497	1077.6817	1208.885	1229.2999	1299.0987	1430.8472	1584.704	1611.3765	1680.5214	2334.2465	3270.3999	3601.5078	3718.2333
NC1=NC=C(O1)C#N	Nc1ncc(o1)C#N	
InChI=1S/C4H3N3O/c5-1-3-2-7-4(6)8-3/h2H,(H2,6,7)	InChI=1S/C4H3N3O/c5-1-3-2-7-4(6)8-3/h2H,(H2,6,7)
