15
gdb 4939	5.20614	1.27104	1.08597	4.8029	63.43	-0.2389	-0.0104	0.2285	1055.4533	0.119639	-399.834967	-399.827502	-399.826558	-399.867066	27.286	
N	 0.2018185833	 0.9266113385	 0.0708462568	-0.50456
H	-1.838142324	-1.0978781192	 0.7415768501	 0.166575
H	 1.1553196678	 1.2749035645	 0.0937322151	 0.231709
H	-0.1495964363	 1.1058301571	-0.8654061008	 0.228927
C	-0.6191077664	 1.6523659901	 1.0514285789	-0.277245
C	-1.9822634371	 1.0479717807	 1.1355656616	 0.242287
C	-3.1541647544	 1.6453458374	 0.9280929369	-0.037241
O	-4.2570781597	 0.820200687	 1.0691206542	-0.202518
C	-3.8000193511	-0.4506345232	 1.390863419	 0.434925
O	-4.5480086708	-1.3616320202	 1.5673169408	-0.316732
C	-2.275862193	-0.3930422372	 1.4553429554	-0.459268
H	-0.1146861036	 1.5585256063	 2.0229569346	 0.113981
H	-0.7193117884	 2.7329220477	 0.8539136642	 0.091283
H	-3.3922500174	 2.667725711	 0.6720272397	 0.136992
H	-1.9383689689	-0.7059718405	 2.4505374136	 0.150885
90.2965	110.2879	191.0095	246.7947	324.6894	415.8843	474.5408	500.7455	568.9561	615.1404	741.082	823.5552	844.9586	882.2053	909.556	958.0783	984.037	1047.4998	1075.9544	1135.8848	1147.5133	1185.7244	1208.2701	1288.8625	1303.3341	1365.1904	1423.3381	1439.152	1499.2402	1655.1335	1723.2406	1905.9094	2957.3232	3024.3388	3049.6593	3090.3552	3246.7592	3489.3121	3571.6614
[NH3+]CC1=COC([O-])=C1	NCC1=COC(=O)C1	
InChI=1S/C5H7NO2/c6-2-4-1-5(7)8-3-4/h1,3,7H,2,6H2	InChI=1S/C5H7NO2/c6-2-4-1-5(7)8-3-4/h3H,1-2,6H2
