15
gdb 3489	4.88505	3.57558	3.13272	1.5759	59.7	-0.2395	0.0974	0.3369	531.8689	0.128072	-308.472241	-308.467552	-308.466608	-308.500312	20.04	
C	-0.0320242333	 1.5875552541	 0.0681855585	-0.237307
C	 1.4942834669	 1.3603033164	-0.0138516007	 0.08239
O	 1.7774301998	 0.7426106345	 1.2520719961	-0.269367
C	 1.0291224922	-0.4640749444	 1.0324648191	 0.08239
C	 1.8035280182	-1.1207034267	-0.1324897064	-0.237306
C	 1.2337774436	 0.0739410553	-0.9105029186	-0.059926
C	-0.0551885533	 0.0543279739	-0.0077765594	-0.059926
H	-0.4077377318	 2.1013320943	 0.9565294631	 0.100227
H	-0.4432899735	 2.0287092845	-0.844021899	 0.098572
H	 2.221031769	 2.1380371499	-0.2425267554	 0.077606
H	 0.7973219494	-0.9591660238	 1.9739949642	 0.077606
H	 2.8833380455	-1.2324241564	-0.006750179	 0.100226
H	 1.3483265973	-2.0566381802	-0.4681947851	 0.098573
H	 1.2220656255	 0.1769674548	-1.9939234632	 0.07312
H	-0.9335268555	-0.5569620063	-0.2062666541	 0.073121
411.9356	423.2346	531.6333	646.6607	722.4455	778.2197	820.4937	834.1136	870.378	920.5376	921.5978	926.5257	977.9484	991.0182	996.0272	1041.1658	1051.5188	1063.7854	1075.8957	1146.8929	1165.9069	1188.5909	1200.6335	1241.5759	1246.5462	1259.2399	1277.079	1282.7097	1342.9857	1480.332	1480.4332	3057.5073	3057.59	3119.907	3120.0027	3130.0389	3132.9772	3136.5611	3144.5624
C1C2OC3CC2C13	C1[C@H]2O[C@@H]3C[C@H]2[C@H]13	
InChI=1S/C6H8O/c1-3-4-2-6(3)7-5(1)4/h3-6H,1-2H2	InChI=1S/C6H8O/c1-3-4-2-6(3)7-5(1)4/h3-6H,1-2H2/t3-,4-,5+,6+/m0/s1
