19
gdb 4117	2.60184	1.82096	1.20818	0.7144	75.23	-0.2402	0.0087	0.2489	1051.1976	0.163732	-365.020967	-365.011969	-365.011025	-365.054623	33.001	
C	-1.0483787774	 1.1066618614	-0.2403181039	-0.398261
C	-0.1593250809	-0.1193257733	-0.426462063	-0.066146
C	 0.9176181004	-0.0887142024	-1.5621988853	-0.254233
C	 2.0072327269	-0.5862536738	-0.5556830506	-0.054215
C	 3.3376879106	 0.1529213561	-0.4814503603	-0.39793
C	 0.9882026899	-0.3522735676	 0.5471554518	 0.399179
N	 1.1725071862	-0.3024054775	 1.7987666161	-0.248401
O	-0.0273444501	-0.0255449109	 2.4899001884	-0.395715
H	-0.4456543318	 2.0157345815	-0.1437273115	 0.113784
H	-1.7100692485	 1.2313933081	-1.1044446329	 0.111151
H	-1.6605506944	 1.0140810513	 0.6591728881	 0.13815
H	-0.7813327862	-1.0207837469	-0.4951576988	 0.094387
H	 0.7311597419	-0.7203628595	-2.4327094565	 0.099731
H	 1.1147049245	 0.9322491004	-1.9031767709	 0.103571
H	 2.1871813142	-1.6614740526	-0.6813393003	 0.091523
H	 3.1803542968	 1.2297048651	-0.3612435448	 0.115335
H	 3.9286453957	-0.1946185729	 0.3710682626	 0.130642
H	 3.924048221	-0.0066634815	-1.3925956185	 0.112876
H	 0.2714411114	 0.003843035	 3.4047952903	 0.304572
45.9602	150.1717	171.3784	201.9858	220.5694	261.1736	316.1009	344.314	380.672	432.0712	529.9553	583.6319	657.259	757.0859	833.05	888.7974	901.2719	959.8469	963.7694	983.5597	1067.6731	1091.7714	1136.5714	1158.4937	1171.3532	1176.3069	1243.5835	1264.751	1277.0891	1329.1584	1358.2971	1399.6739	1406.2204	1408.4489	1485.535	1489.8382	1491.722	1496.2814	1500.0794	1777.0419	3023.4816	3026.9952	3033.0842	3035.0248	3058.0643	3098.0822	3101.6019	3110.6382	3118.3726	3131.8605	3820.4258
CC1CC(C)C1=NO	C[C@H]1C[C@@H](C)C1=NO	
InChI=1S/C6H11NO/c1-4-3-5(2)6(4)7-8/h4-5,8H,3H2,1-2H3	InChI=1S/C6H11NO/c1-4-3-5(2)6(4)7-8/h4-5,8H,3H2,1-2H3/t4-,5+
