14
gdb 2191	4.0124	2.63389	1.84707	1.3941	54.81	-0.27	0.0136	0.2836	696.4122	0.112651	-361.710525	-361.703268	-361.702324	-361.741886	25.653	
C	-0.2525990418	 1.4927823415	 0.0464601216	-0.391117
C	 0.0655859283	 0.0177195924	 0.0277244477	 0.108022
O	 1.2826895435	-0.2802019574	-0.7636084742	-0.265218
C	 1.9525953846	-0.7146319868	 0.3504078724	 0.395652
N	 3.1510174641	-1.0321090729	 0.5426989447	-0.553628
C	 0.7612837228	-0.5883430872	 1.2785438412	-0.001755
O	 0.918901782	 0.2622355294	 2.3837530491	-0.426813
H	 0.573128817	 2.063203141	 0.4762769611	 0.135406
H	-0.4491895011	 1.8504463703	-0.9681467639	 0.129307
H	-1.143349074	 1.6721054268	 0.6565050002	 0.133102
H	-0.762679534	-0.5802529157	-0.3613991667	 0.096557
H	 3.7112710702	-0.9450777855	-0.3067961611	 0.232097
H	 0.3384579857	-1.5566837797	 1.5761095311	 0.103537
H	 1.8401284525	 0.1977727838	 2.6612057068	 0.304851
79.5611	159.0321	202.4833	233.6825	252.9599	373.9365	454.5053	543.3843	664.6214	753.9704	822.6713	861.2139	871.9613	914.8254	1025.3604	1039.2293	1064.2379	1141.3894	1171.0852	1211.974	1240.8678	1334.8969	1365.0224	1380.1797	1383.3828	1415.0368	1484.3437	1486.6047	1823.7825	3022.4049	3049.2385	3079.5874	3119.2201	3141.178	3478.1538	3802.0693
CC1OC(=N)C1O	C[C@H]1O[C]([NH])[C@H]1O	
InChI=1S/C4H7NO2/c1-2-3(6)4(5)7-2/h2-3,5-6H,1H3	InChI=1S/C4H7NO2/c1-2-3(6)4(5)7-2/h2-3,5-6H,1H3/t2-,3+/m1/s1
