17
gdb 2388	5.78317	2.05565	2.04601	1.5494	63.79	-0.2371	0.0764	0.3135	724.3638	0.149237	-309.693085	-309.686517	-309.685573	-309.723837	24.746	
C	 0.0286119417	 1.3018459336	-0.4726756107	-0.213757
C	 1.3634525611	 1.6863231998	 0.2240831707	-0.283696
C	 1.4409857749	 0.2421514348	 0.768797514	 0.475654
C	-0.0704538395	 0.0841686686	 0.4878161533	-0.283696
C	 2.4586070264	-0.7646593278	 0.1852808356	-0.344182
C	 2.9132867549	-0.9308987309	 1.6473831755	-0.074186
O	 1.9315377276	 0.0226133223	 2.1022253361	-0.314121
H	-0.7815561335	 2.0322773345	-0.4402302224	 0.10199
H	 0.1794333577	 0.9958910445	-1.5113052231	 0.103382
H	 2.1934791264	 2.0461255834	-0.3900443805	 0.092744
H	 1.2018662549	 2.3852844629	 1.050028337	 0.113157
H	-0.641701387	 0.3253991697	 1.3891073788	 0.113157
H	-0.4190759651	-0.8729794743	 0.0904692672	 0.092744
H	 2.0217679035	-1.653324852	-0.2746546562	 0.108911
H	 3.2005719353	-0.3362015829	-0.4914818784	 0.108911
H	 2.7552852527	-1.9226866957	 2.0878490864	 0.101494
H	 3.935839848	-0.6035873606	 1.8707011768	 0.101494
68.1125	125.1815	270.2623	371.3566	400.1312	495.1793	690.3342	777.9835	788.3526	846.7273	867.167	911.2441	916.6285	931.543	958.0382	985.5312	1023.8621	1030.6733	1150.8353	1156.8309	1168.7262	1191.3298	1199.8444	1225.8872	1244.1294	1248.7519	1269.3905	1273.5202	1310.4959	1359.7892	1465.3899	1480.1234	1487.7306	1504.0395	1531.1261	3017.477	3050.6468	3055.1842	3056.2965	3067.016	3072.302	3102.7688	3107.4714	3125.6151	3126.5713
C1CC2(C1)CCO2	C1CC2(C1)CCO2	
InChI=1S/C6H10O/c1-2-6(3-1)4-5-7-6/h1-5H2	InChI=1S/C6H10O/c1-2-6(3-1)4-5-7-6/h1-5H2
