17
gdb 4566	5.55465	1.47713	1.18391	1.9275	78.91	-0.2402	-0.0184	0.2218	1028.8444	0.143123	-326.803047	-326.795149	-326.794205	-326.836306	28.329	
C	-0.039681316	 1.5307954165	 0.002562652	-0.498524
C	-0.0090390754	 0.024614489	 0.0199284682	 0.264728
C	-0.2738764458	-0.7260486716	-1.1278130513	-0.070706
N	-0.2649638421	-2.0573841278	-1.1875456155	-0.316268
C	 0.0176283195	-2.7402756072	-0.0704376146	 0.318934
C	 0.0174693579	-4.2431793298	-0.1800448185	-0.466349
C	 0.2977398005	-2.0877734708	 1.1332636434	-0.153686
C	 0.283676409	-0.7001645205	 1.1758098522	-0.14868
H	 0.9290902552	 1.9553595103	 0.2890620077	 0.132626
H	-0.2875863303	 1.908857604	-0.993024626	 0.127882
H	-0.7833878216	 1.9253081704	 0.7040700136	 0.132623
H	-0.5084927471	-0.2115287207	-2.0590538127	 0.096833
H	 0.2567983312	-4.7192301342	 0.7741273136	 0.114426
H	-0.9617535879	-4.601753981	-0.5133245895	 0.138358
H	 0.747256214	-4.5717839547	-0.9270144722	 0.138356
H	 0.5236311307	-2.6645088832	 2.0240160028	 0.093176
H	 0.4997187081	-0.1803458686	 2.1054046565	 0.09627
45.2602	52.9571	133.7524	285.0295	318.6624	389.3592	422.4962	480.8087	504.2138	657.0812	736.891	758.066	843.1268	851.6223	957.7761	985.0562	989.5562	1025.6531	1047.8908	1059.8999	1069.5518	1161.2735	1242.0748	1260.9352	1294.4064	1333.455	1409.3282	1410.0233	1415.4954	1476.1771	1484.8912	1484.9514	1498.9943	1523.0543	1606.2325	1643.555	3029.5841	3039.7637	3082.8444	3099.7077	3111.6586	3122.6619	3130.6646	3161.1527	3186.0477
CC1=CN=C(C)C=C1	Cc1cnc(C)cc1	
InChI=1S/C7H9N/c1-6-3-4-7(2)8-5-6/h3-5H,1-2H3	InChI=1S/C7H9N/c1-6-3-4-7(2)8-5-6/h3-5H,1-2H3
