14
gdb 3556	6.06193	2.72982	2.41288	2.4533	55.93	-0.2343	0.0664	0.3007	584.0148	0.11481	-324.492974	-324.487496	-324.486552	-324.521858	21.745	
O	 0.0212675973	 1.3404410543	 0.1019535135	-0.44217
C	 0.0319588431	-0.0618100795	-0.0572346727	 0.129034
C	-1.4090693722	-0.5389207411	-0.2048076915	-0.04191
C	-1.3453183378	-0.4404515571	-1.6811317657	-0.031784
C	 0.2219085376	-0.5409788318	-1.526923959	-0.131282
C	-0.0122326777	-2.0511679951	-1.3994094659	-0.155092
N	-1.450036493	-1.7835520764	-1.0452238163	-0.153206
H	 0.9304866445	 1.6514874995	 0.047726524	 0.284585
H	 0.6681772265	-0.5444810411	 0.7003176866	 0.061974
H	-2.2393064383	-0.3735117172	 0.4685314964	 0.102865
H	-2.0246230362	-0.0607904891	-2.4315916679	 0.099579
H	 0.9946817036	-0.0982139034	-2.1541003893	 0.070199
H	 0.0127636423	-2.5886295611	-2.3506138457	 0.11101
H	 0.5611316403	-2.605653031	-0.6457716966	 0.096197
229.8506	290.3712	333.6359	434.6769	524.0992	743.4249	771.7348	802.083	829.7825	881.9933	924.4477	945.3144	960.7448	976.1731	997.772	1038.937	1069.3932	1119.5567	1157.5387	1161.0302	1179.7585	1201.3265	1215.8921	1234.4077	1296.1318	1316.6769	1346.8209	1428.0147	1510.6567	2981.9775	3026.363	3099.7628	3124.2523	3205.9188	3219.9203	3815.4431
OC1C2C3C1CN23	O[C@H]1[C@H]2[C@H]3[C@@H]1CN23	
InChI=1S/C5H7NO/c7-5-2-1-6-3(2)4(5)6/h2-5,7H,1H2	InChI=1S/C5H7NO/c7-5-2-1-6-3(2)4(5)6/h2-5,7H,1H2/t2-,3+,4+,5+,6?/m0/s1
