18
gdb 1615	3.57748	2.07344	1.40126	3.9675	67.88	-0.3121	0.0376	0.3497	892.0654	0.15875	-289.87247	-289.863888	-289.862944	-289.90505	30.839	
C	 0.0273616699	 1.5524966397	 0.0220083316	-0.404972
C	 0.020340629	 0.0179240229	 0.0261360458	 0.043066
C	 0.7708994523	-0.5199295682	 1.2518442745	-0.404766
C	-1.4312355027	-0.5414996746	-0.0360986374	-0.117996
C	-2.2427925329	-0.0583085656	-1.2559338682	-0.40471
C	-1.4160495203	-2.0097706703	-0.0212678904	 0.273254
N	-1.4046787512	-3.1658571595	-0.0285393317	-0.335728
H	 1.0527990217	 1.9229236695	 0.1140996233	 0.121464
H	-0.3917559424	 1.9715662905	-0.8960831368	 0.12081
H	-0.5437910807	 1.9507656992	 0.8694439861	 0.116366
H	 0.5372020414	-0.3336235329	-0.8768724086	 0.091805
H	 0.2924474568	-0.18599006	 2.1804926282	 0.114988
H	 0.8003425902	-1.6125738696	 1.2620842309	 0.144501
H	 1.8016295571	-0.1529658626	 1.2608921887	 0.117176
H	-1.952213557	-0.2225257935	 0.8778172656	 0.121538
H	-1.7195027302	-0.2942351067	-2.1873617931	 0.135621
H	-3.2209837354	-0.5443361381	-1.2853048799	 0.138378
H	-2.4010205854	 1.0206962301	-1.2091760988	 0.129205
66.7646	156.4936	202.8273	211.5548	230.0349	269.0105	301.5657	368.9205	389.5603	435.3331	541.6348	585.1698	777.7185	859.44	930.4357	936.7385	965.7348	988.9181	1053.6222	1107.9836	1145.9969	1188.3648	1191.9666	1288.0722	1326.7627	1350.7724	1368.6155	1403.8563	1412.6088	1426.2842	1486.9798	1490.1789	1497.0667	1501.3102	1506.7156	1516.8534	2352.3229	3008.9267	3023.7649	3029.9375	3036.004	3051.9602	3095.3336	3101.9861	3117.07	3121.0282	3124.0549	3138.9629
CC(C)C(C)C#N	CC(C)[C@@H](C)C#N	
InChI=1S/C6H11N/c1-5(2)6(3)4-7/h5-6H,1-3H3	InChI=1S/C6H11N/c1-5(2)6(3)4-7/h5-6H,1-3H3/t6-/m0/s1
