12
gdb 4593	5.99099	1.59854	1.26185	0.	60.41	-0.2248	-0.0488	0.176	866.3994	0.086018	-414.722791	-414.716663	-414.715719	-414.752922	23.73	
O	 0.0372437837	 1.3365085281	-0.1118830366	-0.421324
C	 0.0559615732	-0.0129785655	-0.0532297656	 0.400829
C	 0.0587931636	-0.7557343043	-1.2364099051	-0.088618
N	 0.0771085763	-2.0864191603	-1.2054431727	-0.321265
C	 0.0924195246	-2.671433708	-0.013046023	 0.400828
O	 0.1111330105	-4.020920991	 0.0456057883	-0.421325
C	 0.0895903276	-1.928678329	 1.1701336591	-0.08862
N	 0.0712743393	-0.597992418	 1.1391669952	-0.321268
H	 0.03851654	 1.6491202233	 0.8028120547	 0.30087
H	 0.0461541982	-0.2646963443	-2.2041047426	 0.129512
H	 0.1098739877	-4.3335312709	-0.8690897897	 0.30087
H	 0.1022347252	-2.41971549	 2.1378288979	 0.129512
139.947	346.7782	395.6973	446.5438	447.6621	459.4562	480.9635	527.2563	591.4462	666.0486	797.5727	799.1192	905.7482	917.9149	941.3798	1034.6484	1147.9359	1210.523	1277.1109	1316.0831	1341.3667	1363.3914	1484.0093	1525.9033	1606.5891	1661.279	3182.5688	3185.8293	3777.404	3779.4128
OC1=CN=C(O)C=N1	Oc1cnc(O)cn1	
InChI=1S/C4H4N2O2/c7-3-1-5-4(8)2-6-3/h1-2H,(H,5,8)(H,6,7)	InChI=1S/C4H4N2O2/c7-3-1-5-4(8)2-6-3/h1-2H,(H,5,8)(H,6,7)
