12
gdb 2968	4.18717	2.57822	1.66693	2.2315	53.02	-0.2532	-0.0823	0.1709	701.1049	0.088937	-360.50716	-360.50036	-360.499416	-360.538352	22.945	
O	-0.9822741549	 1.6197550474	-0.0440805923	-0.227623
C	 0.0847855816	 1.2173489395	 0.3346642181	 0.098332
C	 1.3866077349	 2.0274089443	 0.3032078763	 0.270374
O	 2.3680261055	 1.5972518069	 0.8717680151	-0.320886
N	 1.3429952714	 3.1717921264	-0.4511567839	-0.05875
C	 0.4735378724	 4.3162042674	-0.2854302344	-0.212289
C	 1.9636698686	 4.4305660277	-0.1163656052	-0.227128
H	 0.2372559129	 0.2181450916	 0.7917849924	 0.113822
H	 0.0005971897	 4.6848152547	-1.1904131259	 0.139763
H	-0.1457516967	 4.3533110326	 0.6056300668	 0.143089
H	 2.3650495905	 4.5276014469	 0.8887724486	 0.143542
H	 2.5581007141	 4.8883160047	-0.9012219355	 0.137753
95.6467	134.7873	179.8132	197.6469	304.9824	482.8959	599.0442	666.7664	704.5948	804.3988	959.6448	984.7691	1026.6968	1050.3841	1131.2334	1136.7705	1159.4651	1171.7111	1209.0389	1370.9155	1434.1699	1497.0021	1526.1106	1777.9858	1828.4646	2938.0049	3118.6962	3124.3695	3204.4913	3218.126
O=CC(=O)N1CC1	O=CC(=O)N1CC1	
InChI=1S/C4H5NO2/c6-3-4(7)5-1-2-5/h3H,1-2H2	InChI=1S/C4H5NO2/c6-3-4(7)5-1-2-5/h3H,1-2H2
