17
gdb 1656	4.74889	1.54501	1.4705	2.928	60.84	-0.2628	-0.0244	0.2384	911.7875	0.145893	-346.87843	-346.869837	-346.868893	-346.912513	30.021	
C	-0.0824346217	 1.5918610063	-0.0854190781	-0.384523
C	 0.0424727682	 0.0561509708	-0.0381309144	-0.070709
C	-1.3352263123	-0.6181132923	 0.0472677641	-0.384505
C	 0.7841505297	-0.4119040607	-1.2813129027	 0.373153
O	 0.2877858085	-0.3850108703	-2.3892442924	-0.342146
C	 2.2098465336	-0.9154853741	-1.1251066087	-0.139472
O	 2.7762342043	-1.2503985369	-2.3538164317	-0.419299
H	 0.8976978318	 2.0776491436	-0.125660234	 0.120778
H	-0.6498847636	 1.897036065	-0.9692288559	 0.1408
H	-0.603276963	 1.9559186824	 0.8050345947	 0.121345
H	 0.6393178271	-0.2197510458	 0.8405230908	 0.082104
H	-1.916791708	-0.3992237191	-0.8520051627	 0.142291
H	-1.2457830289	-1.7052694843	 0.1357880074	 0.119438
H	-1.885564626	-0.2511073164	 0.9186005228	 0.116496
H	 2.7959989835	-0.1365629056	-0.6077264936	 0.115329
H	 2.1847208852	-1.7798204276	-0.4376621911	 0.115058
H	 2.0694356617	-1.095111245	-3.0020130944	 0.293862
13.7689	124.8488	200.7585	216.4192	237.7395	261.3171	296.6625	352.0088	438.3044	450.8975	566.6311	658.8966	823.2743	883.2221	932.9648	970.1549	991.1198	1058.1133	1116.6309	1121.7861	1152.0657	1199.6534	1244.1309	1306.1585	1338.3034	1376.0824	1393.3385	1416.2006	1450.3453	1486.021	1487.4171	1490.1853	1501.3439	1512.818	1792.5236	2957.4005	2975.3146	3027.5031	3037.885	3041.8979	3107.5096	3110.0001	3120.8073	3127.7968	3671.4005
CC(C)C(=O)CO	CC(C)C(=O)CO	
InChI=1S/C5H10O2/c1-4(2)5(7)3-6/h4,6H,3H2,1-2H3	InChI=1S/C5H10O2/c1-4(2)5(7)3-6/h4,6H,3H2,1-2H3
