17
gdb 3330	3.93521	3.24034	2.14039	0.2635	68.36	-0.2339	0.0323	0.2662	666.109	0.151278	-272.58837	-272.582411	-272.581467	-272.617854	23.938	
C	-0.004756789	 1.5063286525	 0.4278611567	-0.285671
C	 1.2675430573	 0.8493858665	-0.0503529616	-0.014977
C	 2.3639207081	 0.5063377508	 0.9442659623	-0.267139
C	 1.8965036676	-0.3465781089	 2.0928813596	-0.052428
C	 0.7543211425	-1.0321264412	 2.1013021445	-0.052423
C	-0.2305995822	-1.0509192189	 0.9633909871	-0.267138
C	-0.0285278767	 0.0714747429	-0.0407952748	-0.014976
H	-0.1043193406	 1.6853119493	 1.4939643146	 0.11312
H	-0.4635769765	 2.2630621288	-0.1990566792	 0.103986
H	 1.6311650162	 1.1704245451	-1.0221467202	 0.076762
H	 3.1744091824	-0.022140824	 0.4197286643	 0.108368
H	 2.8245042121	 1.4268916818	 1.3301414015	 0.102316
H	 2.5613687042	-0.4058027857	 2.951451354	 0.081378
H	 0.5032321034	-1.6411140984	 2.9666252712	 0.081378
H	-0.1510541311	-2.0181185141	 0.4442386174	 0.108368
H	-1.2553659969	-1.0218914818	 1.3602129559	 0.102316
H	-0.493364821	-0.1047294848	-1.0064810734	 0.076761
127.8142	291.6107	343.6245	401.9934	513.1634	548.4501	682.1541	746.84	787.4144	820.2422	835.3636	895.7277	942.9327	943.9729	994.8527	1013.4071	1043.8422	1058.6714	1065.4984	1106.498	1128.17	1138.5383	1207.0166	1227.066	1236.2329	1246.9963	1356.3988	1361.7358	1372.7867	1417.2241	1425.733	1475.7342	1479.6968	1493.5456	1729.6681	2991.6539	2991.6768	3014.5591	3014.7025	3126.7155	3137.8565	3140.4271	3148.4592	3164.2516	3212.6093
C1C2CC=CCC12	C1[C@H]2CC=CC[C@@H]12	
InChI=1S/C7H10/c1-2-4-7-5-6(7)3-1/h1-2,6-7H,3-5H2	InChI=1S/C7H10/c1-2-4-7-5-6(7)3-1/h1-2,6-7H,3-5H2/t6-,7+
