14
gdb 2516	3.7676	2.09138	1.47347	1.3827	60.49	-0.2294	-0.035	0.1943	820.799	0.110691	-324.529724	-324.521647	-324.520703	-324.562126	27.834	
C	 0.0371501058	 1.5136765682	 0.0651812792	-0.322149
N	-0.1285140394	 0.0657082108	-0.0628295957	-0.266791
C	 0.6207209527	-0.5109527633	-1.1640789812	-0.236807
C	 2.1496518175	-0.5918598243	-0.9310729251	 0.157502
O	 2.6652318842	-0.3260384142	 0.1206093875	-0.238436
C	 0.1843224753	-1.871824708	-1.4884180943	 0.289193
C	-0.1014752714	-3.0129703586	-1.7341242908	-0.403383
H	 1.0786440064	 1.846750227	 0.1830047454	 0.117598
H	-0.385737724	 2.0042544775	-0.8190241002	 0.121424
H	-0.5317288669	 1.8555179523	 0.9338660638	 0.126324
H	 0.1696920172	-0.3871933057	 0.7955745881	 0.231722
H	 0.4711792757	 0.1214948721	-2.0530185056	 0.124258
H	 2.7370864016	-0.9434498004	-1.8073709316	 0.095348
H	-0.3866910747	-4.0115152134	-1.9576510394	 0.204195
90.6058	105.7796	155.3727	191.1055	222.0897	278.1425	362.4891	473.941	511.6564	624.0191	669.2542	677.8476	761.3025	818.5163	969.6076	1000.3412	1047.9557	1141.3246	1157.9017	1215.4332	1254.1616	1330.1163	1400.3525	1457.0772	1488.3466	1498.6376	1524.2648	1835.1868	2233.382	2895.079	2993.7391	2998.9633	3065.6542	3110.7869	3502.5221	3524.6588
CNC(C=O)C#C	CN[C@@H](C=O)C#C	
InChI=1S/C5H7NO/c1-3-5(4-7)6-2/h1,4-6H,2H3	InChI=1S/C5H7NO/c1-3-5(4-7)6-2/h1,4-6H,2H3/t5-/m1/s1
