17
gdb 2242	4.69754	2.59769	2.09722	1.7965	63.26	-0.2513	0.093	0.3443	692.2034	0.149407	-309.728265	-309.721728	-309.720784	-309.758217	25.462	
C	 0.0229683547	 1.504746778	-0.0318337282	-0.483983
C	-0.0703648893	 0.0091862658	 0.0925376611	 0.427841
C	-1.3358647091	-0.7300128815	-0.3200808596	-0.26989
C	-1.113040636	-2.1801132905	 0.1698958447	-0.211398
C	-0.1692913607	-2.0606770183	 1.3924363487	-0.237407
C	 0.6212029354	-0.79941548	 1.10825484	 0.000891
O	 1.1228196783	-0.7312148502	-0.2372546047	-0.303651
H	 0.9825238099	 1.8648180934	 0.3475208421	 0.128132
H	-0.0640314226	 1.8122859575	-1.0799673197	 0.125591
H	-0.7823131584	 1.9937407656	 0.5268795982	 0.118651
H	-2.1937275779	-0.2646503536	 0.1819380296	 0.097686
H	-1.5202679197	-0.6741464789	-1.3980321098	 0.103116
H	-2.0485379747	-2.6905185982	 0.4108392578	 0.095079
H	-0.6164045833	-2.7549436005	-0.614207048	 0.119488
H	-0.7308429504	-1.9241894678	 2.3255049909	 0.099362
H	 0.4669109171	-2.942171603	 1.5197126756	 0.106886
H	 1.2658370265	-0.3595207078	 1.8665319013	 0.083604
185.0178	202.7858	236.8008	309.8895	390.9216	444.511	569.8102	656.2581	694.1256	813.1558	847.9666	882.9247	892.5792	927.3147	944.7262	1001.6925	1019.1239	1037.5609	1082.9711	1135.6133	1175.5651	1204.5338	1243.084	1257.121	1300.4776	1325.4824	1335.9509	1351.5866	1412.181	1455.1884	1479.2852	1479.4308	1489.0001	1498.4208	1503.5567	3028.3788	3031.2817	3034.7142	3070.2225	3077.7837	3081.9652	3094.0465	3120.1101	3121.7686	3135.3349
CC12CCCC1O2	C[C@]12CCC[C@H]1O2	
InChI=1S/C6H10O/c1-6-4-2-3-5(6)7-6/h5H,2-4H2,1H3	InChI=1S/C6H10O/c1-6-4-2-3-5(6)7-6/h5H,2-4H2,1H3/t5-,6+/m1/s1
