17
gdb 1348	4.2207	2.36765	2.28654	1.3834	65.66	-0.2297	0.0195	0.2492	704.2269	0.147403	-309.731369	-309.724077	-309.723132	-309.762326	27.428	
C	 0.0925134554	 1.4648992175	-0.0705992398	-0.402781
C	-0.0899775806	-0.0556773751	 0.0443224095	 0.341712
C	-1.5793417414	-0.4304697257	 0.0406711703	-0.402772
O	 0.5429130106	-0.6806175	-1.0931827661	-0.304108
C	 1.5751634898	-1.5674325234	-0.679495982	-0.125786
C	 1.5847677193	-1.4876966859	 0.8211280276	-0.098858
C	 0.6497945608	-0.6388773471	 1.2270092339	-0.1058
H	 1.1550106918	 1.7214259439	-0.0854377094	 0.116733
H	-0.3655083545	 1.8282330295	-0.9954984961	 0.121331
H	-0.3786827373	 1.9815946934	 0.7722510641	 0.107784
H	-2.0510561453	-0.0819482147	-0.8830472654	 0.121316
H	-1.6997596845	-1.5150958986	 0.1040141567	 0.116735
H	-2.1014799042	 0.0278402247	 0.8872662842	 0.107786
H	 1.3670541216	-2.5865288863	-1.0435158108	 0.102247
H	 2.5369851479	-1.2609937429	-1.1214856621	 0.10226
H	 2.267981591	-2.0540821503	 1.4417175328	 0.103364
H	 0.4128542696	-0.3697845492	 2.2490022227	 0.098838
81.9576	201.734	242.5841	244.8881	334.7942	370.366	378.3719	518.5899	628.0757	742.5725	775.1161	820.3888	872.4214	920.3067	942.395	958.4426	969.6841	1008.3846	1046.6784	1071.8477	1116.5194	1180.2341	1197.5966	1213.1304	1251.9274	1358.1758	1378.9654	1389.6654	1410.1689	1474.9431	1480.3748	1494.2547	1503.5261	1522.6108	1693.7654	2968.7969	2982.5741	3033.4895	3038.849	3104.5602	3111.4043	3119.2132	3121.6333	3200.663	3225.7596
CC1(C)OCC=C1	CC1(C)OCC=C1	
InChI=1S/C6H10O/c1-6(2)4-3-5-7-6/h3-4H,5H2,1-2H3	InChI=1S/C6H10O/c1-6(2)4-3-5-7-6/h3-4H,5H2,1-2H3
