16
gdb 568	8.32944	2.22945	1.91437	1.2955	56.81	-0.2613	0.0775	0.3388	673.3675	0.143443	-271.616401	-271.609777	-271.608832	-271.646705	23.883	
O	-0.0829998376	 1.4287345974	-0.1774934861	-0.423099
C	 0.0089219778	 0.0349802369	 0.0844735085	-0.096781
C	-1.3850657733	-0.5492883285	 0.0118324462	 0.073783
C	-2.0970022702	-0.6209691649	-1.3677601254	-0.207832
C	-2.6373444095	-2.0223870714	-0.9731476437	-0.208196
C	-1.546131979	-2.0904725228	 0.1307466572	-0.237908
H	 0.8045907793	 1.7980793777	-0.1600134911	 0.285386
H	 0.6553778329	-0.4671722051	-0.655458159	 0.076404
H	 0.4429753705	-0.1577469753	 1.080405127	 0.081122
H	-2.0215249737	-0.0363512159	 0.7410315704	 0.077314
H	-2.8208614227	 0.1604839326	-1.6070373748	 0.099751
H	-1.3696662731	-0.6806592912	-2.1842398049	 0.095565
H	-3.6418757398	-1.9645019885	-0.5439712036	 0.101101
H	-2.6341863282	-2.8036700966	-1.7368712342	 0.093589
H	-0.6497648612	-2.6127906618	-0.2215163065	 0.095196
H	-1.8241021222	-2.5011893326	 1.1045205901	 0.094606
100.0054	134.6631	216.5464	265.5675	396.4227	433.6168	630.5291	758.2155	788.5257	892.3503	915.8133	934.5371	969.5442	975.9559	1041.7632	1081.4715	1110.5713	1163.9989	1200.1768	1227.377	1243.6871	1255.75	1264.5243	1271.8462	1292.426	1301.2396	1370.0022	1460.898	1478.0363	1485.6843	1507.4763	1520.8975	2948.3183	2974.3498	3041.9713	3048.0807	3055.1505	3056.9956	3095.4448	3105.3288	3118.7714	3829.4761
OCC1CCC1	OCC1CCC1	
InChI=1S/C5H10O/c6-4-5-2-1-3-5/h5-6H,1-4H2	InChI=1S/C5H10O/c6-4-5-2-1-3-5/h5-6H,1-4H2
