13
gdb 4445	3.58365	1.95484	1.27636	4.2697	58.62	-0.1952	0.0443	0.2395	885.391	0.096587	-431.92851	-431.921244	-431.9203	-431.959721	27.376	
N	 0.2278548624	 1.3969476251	 0.1036029249	-0.596573
C	 0.0157673777	 0.036180205	 0.0141294046	 0.317302
C	-1.0812573813	-0.7232613667	-0.0017157504	 0.173424
N	-2.4229166378	-0.3869697482	-0.0181752607	-0.606186
O	-0.6591925941	-2.0808248043	 0.0415474391	-0.22735
C	 0.6894288424	-2.0786932755	 0.037008988	 0.499417
N	 1.3990236829	-3.1167352519	 0.0322483174	-0.583978
O	 1.1356031309	-0.766045761	 0.0374754271	-0.237862
H	 0.9301029694	 1.732227649	-0.5464821473	 0.260057
H	-0.6401764574	 1.9057951403	-0.0097485334	 0.26572
H	-2.915974266	-0.6605052981	 0.826972878	 0.252787
H	-2.9195233834	-0.7729625662	-0.8155612957	 0.252085
H	 2.3857380543	-2.8722433774	 0.0383336684	 0.231156
148.1652	212.9387	245.045	288.5891	297.1488	349.3437	377.664	567.468	621.3674	647.6862	668.431	728.7547	768.1199	774.6732	785.438	832.2585	957.6627	994.2264	1047.4266	1153.5644	1220.8088	1265.2624	1359.3026	1415.1892	1629.2581	1663.6561	1786.1528	1869.6058	3485.1722	3521.4945	3544.2873	3546.3843	3624.2082
NC1=C(N)OC(=N)O1	NC1=C(N)O[C@@H]([NH])O1	
InChI=1S/C3H5N3O2/c4-1-2(5)8-3(6)7-1/h6H,4-5H2	InChI=1S/C3H6N3O2/c4-1-2(5)8-3(6)7-1/h3,6H,4-5H2
