15
gdb 3613	4.95043	3.63948	2.72594	0.924	67.04	-0.2073	-0.0286	0.1787	555.8703	0.126737	-271.277972	-271.27289	-271.271946	-271.306301	21.314	
C	-0.1557896869	 1.3168943534	 0.1193816223	-0.257236
C	 1.4088557758	 1.3623324732	-0.0582451428	-0.064454
C	 2.2412258897	 0.0120065886	-0.0245530293	-0.036193
C	 1.7170459739	-1.3122874001	 0.5633548243	-0.258313
C	 0.2231087711	-1.0931348648	 0.344469272	-0.09707
C	 0.0367572467	-0.0695064047	-0.5131165198	 0.053725
C	 1.3645108502	 0.3561062957	-1.1718361226	-0.103621
H	-0.5940737267	 1.3470571099	 1.1212289931	 0.098979
H	-0.6025493853	 2.0933696644	-0.5127718084	 0.103406
H	 1.9763818988	 2.2903599768	-0.0601828931	 0.088636
H	 3.3139232664	 0.1910859165	-0.0835418893	 0.076733
H	 2.1917128648	-2.1671437157	 0.0597976884	 0.106966
H	 1.8943128279	-1.4393900851	 1.6384608342	 0.107927
H	-0.475353575	-1.3008906744	 1.1508632673	 0.09374
H	 1.5907100687	 0.4586524064	-2.2249012362	 0.086776
281.5531	401.782	415.287	601.2594	674.7699	729.3524	751.758	794.6913	808.9803	869.314	903.3756	916.119	944.7966	976.8536	987.419	1017.4744	1031.0139	1058.2865	1069.8577	1088.4895	1123.6111	1175.2383	1213.399	1229.5519	1271.6276	1277.4875	1302.7881	1373.8623	1475.3535	1500.454	1592.6612	2996.1141	3024.9855	3048.5435	3089.4879	3123.1598	3135.1147	3158.6311	3196.4472
C1C2C3CC=C1C23	C1[C@H]2[C@H]3C[CH][C]1[C@@H]23	
InChI=1S/C7H8/c1-2-5-6-3-4(1)7(5)6/h1,5-7H,2-3H2	InChI=1S/C7H8/c1-2-5-6-3-4(1)7(5)6/h1,5-7H,2-3H2/t5-,6+,7-/m1/s1
