14
gdb 1708	3.89576	2.44504	1.97745	3.1446	57.49	-0.2897	0.011	0.3007	692.3886	0.113337	-324.57665	-324.569773	-324.568829	-324.607306	25.296	
O	 0.199350164	 1.455321609	-0.3292916845	-0.454745
C	 0.0005371317	 0.1082302175	 0.024163468	 0.280841
C	 0.1422089964	-0.3006396111	 1.5303061294	-0.272557
C	-1.1962273209	-1.0760188978	 1.4080061106	-0.215811
C	-1.5011066459	-0.2826452516	 0.1099364536	-0.250893
C	 0.771091593	-0.782241958	-0.8588392891	 0.224467
N	 1.4060214361	-1.4642024024	-1.5435352487	-0.336933
H	 1.146154381	 1.629890258	-0.3836871761	 0.293064
H	 1.0384607155	-0.8485669109	 1.825352451	 0.118846
H	 0.0424828143	 0.6015538587	 2.138663421	 0.121033
H	-1.0377573645	-2.1387727096	 1.2119526311	 0.125524
H	-1.9056396158	-0.973169154	 2.2297650768	 0.113667
H	-2.0744753785	 0.6267364916	 0.3041344632	 0.128612
H	-1.9310900066	-0.8106576494	-0.7416102664	 0.124884
111.9322	188.2938	202.2718	295.093	363.2252	400.0146	523.0295	578.288	649.8545	689.7334	791.7308	851.5865	912.1906	934.7468	977.6332	1008.5604	1050.2296	1130.9052	1194.6411	1201.6821	1250.0415	1265.9525	1277.9306	1291.1853	1361.7684	1468.4908	1484.9917	1503.8604	2346.5252	3072.1917	3078.5384	3081.0228	3125.7013	3138.4595	3147.1157	3799.5916
OC1(CCC1)C#N	OC1(CCC1)C#N	
InChI=1S/C5H7NO/c6-4-5(7)2-1-3-5/h7H,1-3H2	InChI=1S/C5H7NO/c6-4-5(7)2-1-3-5/h7H,1-3H2
