10
gdb 3834	5.95899	2.91759	1.95862	1.441	52.35	-0.2708	-0.0679	0.2028	584.587	0.068464	-355.468067	-355.462839	-355.461895	-355.49728	18.82	
N	-0.0900221999	 1.2949131396	 0.1361718879	-0.504413
C	 0.0028900693	 0.0336033778	-0.023217506	 0.322869
C	-1.2182334931	-0.7759936619	-0.0938982989	 0.054054
N	-1.2677511072	-2.0453555858	-0.2508580525	-0.067782
O	-0.0121348216	-2.6881911989	-0.3621369056	-0.218043
C	 1.10357029	-1.9401981991	-0.2966324949	 0.172531
N	 1.2081234127	-0.6798836359	-0.142109808	-0.317316
H	 0.8488516144	 1.7012945181	 0.1634828561	 0.233253
H	-2.1831270224	-0.2841255129	-0.0086910699	 0.165643
H	 1.9784330977	-2.579465471	-0.3979687382	 0.159204
103.3915	402.9761	426.7503	433.9705	537.4876	680.8102	760.2504	800.7332	848.0847	929.3192	970.9465	991.0335	991.2124	1083.0265	1160.1652	1280.3725	1368.2284	1423.8771	1645.7138	1682.8395	1719.4376	3169.1101	3189.5748	3453.0488
N=C1C=NOC=N1	[NH][C]1C=NOC=N1	
InChI=1S/C3H3N3O/c4-3-1-6-7-2-5-3/h1-2,4H	InChI=1S/C3H3N3O/c4-3-1-6-7-2-5-3/h1-2,4H
