11
gdb 2558	3.73699	2.5993	1.72092	4.8295	58.	-0.2705	-0.0122	0.2584	696.7262	0.077695	-302.238859	-302.232243	-302.231299	-302.269255	23.833	
C	 0.0185558768	-1.1665866542	-0.0105952812	-0.422702
C	-0.014634964	 0.0339885766	 0.0180848272	 0.264014
C	-0.029817005	 1.4730411512	 0.0405056069	 0.028243
C	 0.527504461	 2.1800083351	 1.2504283122	-0.249067
N	 1.260135581	 2.2155867619	-0.0063146515	-0.32189
C	-1.1114328211	 2.0990636284	-0.6967247359	 0.260518
N	-1.9887156773	 2.5932815581	-1.2628330083	-0.329233
H	 0.0385260431	-2.2286373507	-0.0365677138	 0.214812
H	 0.0772289454	 3.1219607087	 1.5469358927	 0.154919
H	 0.8709741135	 1.5419382666	 2.0589100881	 0.143568
H	 2.0172088067	 1.5354674182	-0.0046607465	 0.256818
131.1705	204.4255	221.63	234.4216	471.1556	487.4736	585.7124	602.6729	621.2609	624.9479	686.6403	819.7255	909.5563	946.1119	988.6958	1081.4523	1140.7322	1245.3872	1307.1246	1329.66	1500.4425	2244.6556	2367.0694	3123.4963	3221.4907	3499.3342	3507.9057
C#CC1(CN1)C#N	C#C[C@]1(CN1)C#N	
InChI=1S/C5H4N2/c1-2-5(3-6)4-7-5/h1,7H,4H2	InChI=1S/C5H4N2/c1-2-5(3-6)4-7-5/h1,7H,4H2/t5-/m1/s1
