10
gdb 742	9.49364	3.55271	2.6275	3.7027	43.87	-0.3017	-0.0417	0.26	471.0874	0.073559	-301.316399	-301.311329	-301.310385	-301.344913	17.396	
C	-0.0232148642	 1.5095313888	-0.0195764005	-0.495423
C	-0.001364186	 0.0182912179	 0.0364504553	 0.331846
N	-0.0875149601	-0.7278700636	-1.0337306687	-0.134216
O	-0.0345285438	-2.0241411824	-0.6000927239	-0.147881
N	 0.0861814741	-2.0888091638	 0.7581171568	-0.057716
C	 0.1079112502	-0.8507534355	 1.163037984	-0.098192
H	 0.8944807072	 1.9299067301	 0.4037203847	 0.147467
H	-0.1157751523	 1.8436030002	-1.054097433	 0.159746
H	-0.8648427009	 1.9097704218	 0.554504832	 0.14754
H	 0.1978414859	-0.6115486635	 2.2116036332	 0.146829
119.6779	282.4934	329.3141	650.0971	668.935	684.0198	892.5521	896.7771	934.2585	988.626	1028.8703	1070.7066	1083.7562	1204.5462	1400.0988	1428.4463	1464.8042	1483.1259	1491.8193	1620.997	3047.3629	3104.6585	3146.5405	3266.0979
CC1=NON=C1	Cc1nonc1	
InChI=1S/C3H4N2O/c1-3-2-4-6-5-3/h2H,1H3	InChI=1S/C3H4N2O/c1-3-2-4-6-5-3/h2H,1H3
