12
gdb 2519	3.47019	2.21167	1.43366	3.8157	51.8	-0.2837	-0.0601	0.2236	800.5328	0.087214	-360.508088	-360.500263	-360.499319	-360.541364	25.086	
C	-0.2549674624	 1.3927313675	-0.0489276583	-0.250367
O	 0.186223505	 0.0499256933	 0.0974272336	-0.231992
C	 0.7926204177	-0.4893498319	-1.0431469923	-0.08594
C	 1.3686257925	-1.8612323427	-0.6212188869	 0.14929
O	 2.2185029884	-2.4351154722	-1.2358139241	-0.215725
C	-0.1569326795	-0.6686397407	-2.1614517072	 0.268993
N	-0.9211322726	-0.8031757601	-3.0177253293	-0.30938
H	 0.5812589288	 2.0589569596	-0.303393604	 0.122172
H	-1.0292017613	 1.4781184565	-0.8217379089	 0.142875
H	-0.671303792	 1.6882857683	 0.9150931813	 0.147359
H	 1.6306095125	 0.1275907214	-1.4048513686	 0.141237
H	 0.9144556627	-2.2391279792	 0.3170824147	 0.121478
30.6785	100.0501	159.5865	192.2287	209.8531	264.6833	406.937	463.261	537.0629	620.5884	842.7484	981.3234	1038.2378	1058.3994	1151.8021	1184.6001	1218.3324	1275.6539	1331.0927	1386.2369	1481.8361	1489.3482	1506.3446	1857.8792	2351.6536	2940.2417	2991.0115	3002.3936	3066.689	3141.7073
COC(C=O)C#N	CO[C@@H](C=O)C#N	
InChI=1S/C4H5NO2/c1-7-4(2-5)3-6/h3-4H,1H3	InChI=1S/C4H5NO2/c1-7-4(2-5)3-6/h3-4H,1H3/t4-/m1/s1
