13
gdb 949	5.67429	2.62513	1.79479	1.255	62.42	-0.2191	0.001	0.2201	662.6765	0.104479	-307.387663	-307.382167	-307.381222	-307.416622	21.832	
O	 0.097246341	 1.3675180399	 0.1311290224	-0.443817
C	 0.0678524749	 0.0068424163	 0.0400805622	 0.405421
C	 0.0761418569	-0.6646100168	-1.1834359131	-0.251518
C	 0.0447916339	-2.0568390099	-1.2095635585	-0.076944
C	 0.0052224321	-2.7854492589	-0.024379913	-0.130022
C	-0.0027741535	-2.1059217819	 1.1939332909	-0.081841
C	 0.0282225363	-0.7173008208	 1.2333985161	-0.183649
H	 0.1226305024	 1.7401784789	-0.7561445864	 0.295527
H	 0.1070304048	-0.0987829965	-2.1112642157	 0.081396
H	 0.0515297324	-2.5700062722	-2.1656883557	 0.095374
H	-0.019110342	-3.8689687908	-0.0478804758	 0.092005
H	-0.0335038287	-2.6625358966	 2.1250038973	 0.09612
H	 0.0224610795	-0.1755467506	 2.1723285893	 0.101947
233.3224	369.7802	406.1505	420.3493	521.672	533.1194	628.597	707.1698	772.525	830.0212	832.7948	891.6718	943.8885	974.7781	1009.9947	1045.7032	1095.0609	1177.2813	1191.5389	1198.5986	1299.4243	1349.953	1368.2879	1502.4366	1533.009	1637.5621	1650.164	3152.604	3174.4128	3182.7701	3197.7086	3204.7191	3823.8246
OC1=CC=CC=C1	Oc1ccccc1	
InChI=1S/C6H6O/c7-6-4-2-1-3-5-6/h1-5,7H	InChI=1S/C6H6O/c7-6-4-2-1-3-5-6/h1-5,7H
