16
gdb 3574	4.78667	2.76464	2.33907	1.652	63.33	-0.2181	0.0666	0.2847	640.7115	0.137512	-288.5395	-288.533347	-288.532402	-288.569153	24.249	
C	-0.0192936149	 1.6095658617	 0.0506516716	-0.440277
C	 0.1152812257	 0.0939610766	-0.0762242031	-7.*^-6
C	 0.4693169629	-0.7461139904	-1.2736482175	-0.108399
C	 1.7901920962	-0.3554963645	-1.9666848073	-0.033264
C	 2.5743169189	 0.7430514652	-1.3550082062	-0.250305
N	 2.5968709887	-0.586887202	-0.7181960825	-0.138848
C	 1.2900358435	-0.863093882	-0.0024102648	-0.032742
H	 0.1619182074	 2.1287595713	-0.8928800327	 0.132072
H	-1.0400797203	 1.8567408873	 0.3588452694	 0.113788
H	 0.654579063	 2.0247355306	 0.8074866796	 0.128668
H	-0.6936226452	-0.4092215527	 0.454962066	 0.097021
H	-0.2090759823	-1.4629952643	-1.7186185086	 0.090973
H	 2.0932265885	-0.8181300227	-2.9008499734	 0.098195
H	 3.52453054	 0.9684413663	-1.8336067421	 0.119637
H	 2.1217933079	 1.5863181207	-0.857292453	 0.124542
H	 1.32520248	-1.6525789611	 0.7385073947	 0.098945
131.1812	210.7683	299.2881	397.0664	470.1847	657.4171	670.134	706.2091	714.7956	752.2663	866.6305	884.6364	916.4384	941.8785	1002.5413	1024.2059	1052.7825	1072.1888	1076.1143	1091.5625	1102.1022	1126.5762	1142.7942	1207.0614	1244.2537	1279.8555	1337.2203	1356.5352	1410.7158	1442.8723	1493.496	1501.141	1514.5466	3035.5322	3088.2568	3102.489	3119.3526	3128.688	3155.5169	3178.3358	3191.209	3263.7961
CC1C2C3CN3C12	C[C@H]1[C@H]2[C@H]3CN3[C@@H]12	
InChI=1S/C6H9N/c1-3-5-4-2-7(4)6(3)5/h3-6H,2H2,1H3	InChI=1S/C6H9N/c1-3-5-4-2-7(4)6(3)5/h3-6H,2H2,1H3/t3-,4+,5-,6-,7?/m0/s1
