17
gdb 2925	6.05065	1.75161	1.41225	1.485	66.51	-0.2228	0.0378	0.2606	867.9257	0.149139	-309.729139	-309.721815	-309.720871	-309.760654	26.54	
O	 0.0060702598	 1.4090931319	 0.2274356515	-0.414167
C	-0.0129741276	 0.0022552317	 0.0632992106	-0.178123
C	-1.4210742521	-0.4836845927	-0.0411394303	 0.325222
C	-2.5328401698	 0.2496095392	 0.0152573639	-0.147474
C	-3.7777263974	-0.5818106822	-0.1800537385	-0.247615
C	-3.2545687878	-2.0356071526	-0.04422976	-0.202254
C	-1.7265917282	-1.9467888198	-0.2883182962	-0.300425
H	 0.9220012394	 1.6864366897	 0.3159426945	 0.288064
H	 0.5430585075	-0.3042167206	-0.8418504287	 0.090931
H	 0.4837565855	-0.5067687982	 0.9093795618	 0.091531
H	-2.547399948	 1.3244341712	 0.1445544392	 0.101604
H	-4.5650941654	-0.3526880836	 0.5474697595	 0.098442
H	-4.2173089484	-0.3962916874	-1.171072021	 0.101357
H	-3.4375015982	-2.3925541191	 0.9741941768	 0.103417
H	-3.75119438	-2.7332233512	-0.7234605449	 0.094097
H	-1.4583606384	-2.2263568383	-1.3180522051	 0.100393
H	-1.1583312709	-2.6200250677	 0.3657031169	 0.094999
85.49	135.4212	204.0394	211.8364	244.1451	419.9295	440.7506	621.9636	671.5794	807.4226	848.95	885.0994	899.9211	920.906	961.1921	1019.9846	1037.0366	1073.1177	1083.1935	1149.5403	1161.8474	1215.3918	1228.0735	1242.0587	1255.8739	1287.9005	1318.8971	1329.6708	1358.0766	1467.2596	1484.4762	1489.3997	1506.0924	1509.2022	1728.7096	2931.223	2941.7253	2996.1987	2999.3281	3034.034	3043.984	3058.974	3099.094	3217.0928	3838.5596
OCC1=CCCC1	OCC1=CCCC1	
InChI=1S/C6H10O/c7-5-6-3-1-2-4-6/h3,7H,1-2,4-5H2	InChI=1S/C6H10O/c7-5-6-3-1-2-4-6/h3,7H,1-2,4-5H2
