17
gdb 2678	11.15078	0.82956	0.81874	0.9218	71.03	-0.2421	0.0417	0.2839	1447.2583	0.145974	-309.680641	-309.671565	-309.67062	-309.716034	29.903	
C	 0.4378654312	 1.3981284178	 0.2625917461	-0.36482
C	-0.3014136311	 0.1441435633	-0.238222821	-0.316198
C	 0.3178963216	-0.460167392	-1.4126135862	 0.154115
C	 0.8494359191	-0.9475766096	-2.3765171506	-0.01807
C	 1.4697920764	-1.525938468	-3.56009037	-0.200466
O	 2.3565096471	-2.5667827069	-3.1920655782	-0.227353
C	 2.9751885521	-3.152695876	-4.3125904899	-0.217376
H	 1.4692229005	 1.1575093296	 0.5338659506	 0.130619
H	 0.4645087535	 2.1690104873	-0.5123915617	 0.126821
H	-0.0638796398	 1.8111781812	 1.1428068024	 0.113563
H	-0.3470766003	-0.6015641652	 0.5658331453	 0.132982
H	-1.3439164025	 0.3987769949	-0.4690844041	 0.128783
H	 0.691097836	-1.912209378	-4.2417431069	 0.111069
H	 2.0125814756	-0.7437885983	-4.1202936897	 0.110634
H	 2.240139517	-3.6014831047	-5.0003475187	 0.103109
H	 3.5723048249	-2.4217407561	-4.8816902063	 0.102952
H	 3.6378923487	-3.9382577393	-3.9426869112	 0.129637
15.5284	73.7074	96.4898	137.6938	215.7497	228.7933	298.3992	321.8797	373.284	479.2389	532.6603	769.0925	783.6333	961.9409	980.0227	1029.0905	1080.1028	1103.4541	1137.466	1178.9898	1182.5223	1219.8129	1255.8231	1286.4239	1351.2289	1408.795	1412.2331	1472.3342	1477.4764	1483.7416	1494.814	1496.0381	1505.324	1516.8791	2373.4606	2939.3902	2955.5744	2965.969	3007.2308	3020.5725	3044.2504	3047.9104	3117.1681	3118.6165	3124.2661
CCC#CCOC	CCC#CCOC	
InChI=1S/C6H10O/c1-3-4-5-6-7-2/h3,6H2,1-2H3	InChI=1S/C6H10O/c1-3-4-5-6-7-2/h3,6H2,1-2H3
