19
gdb 1751	5.22653	1.45027	1.32895	1.4016	67.63	-0.2519	0.0746	0.3264	990.4803	0.170209	-310.910278	-310.901941	-310.900997	-310.94275	30.904	
C	-0.0741271988	 1.580418675	-0.0229300024	-0.381287
C	-0.1389387467	 0.054100325	-0.1217618831	-0.174747
C	 0.8651088642	-0.5251286472	-1.1276436552	-0.224201
C	 0.8104748145	-2.0367720345	-1.2397712156	 0.425633
O	 1.1397402226	-2.7250536455	-0.0565835957	-0.472069
C	-0.1938572449	-2.6934266164	-2.1576768834	-0.320152
C	 1.2890517369	-2.7176475987	-2.4834032681	-0.304498
H	 0.923398448	 1.9141055738	 0.2832993967	 0.116924
H	-0.2964105516	 2.0490464919	-0.9881253873	 0.114126
H	-0.7930411851	 1.9650271234	 0.7072169127	 0.111325
H	 0.0548660607	-0.3774894891	 0.8689802107	 0.09039
H	-1.1539808079	-0.2554878251	-0.4033844697	 0.095754
H	 0.6826490454	-0.0883398931	-2.1176166525	 0.090089
H	 1.8824496596	-0.2326111225	-0.8358819366	 0.101104
H	 0.4006193663	-2.6327570137	 0.5537951375	 0.281356
H	-0.6392923211	-3.6226467409	-1.8201798319	 0.110997
H	-0.8458881838	-2.0654363097	-2.7558805045	 0.107877
H	 1.6505678594	-2.1066942698	-3.3034964865	 0.109896
H	 1.8102266521	-3.658128433	-2.348204635	 0.121482
86.2354	96.5497	166.2696	246.8294	295.1149	300.316	347.9649	360.9529	437.3119	506.2166	729.9501	755.9972	779.4794	867.7495	885.9089	918.1208	930.2182	951.6908	983.5658	1043.2318	1051.6663	1077.2868	1102.9798	1126.4868	1189.386	1240.5472	1288.669	1294.3854	1315.7823	1337.2522	1370.1323	1405.8794	1411.7603	1452.5669	1474.4226	1493.3134	1498.91	1500.669	1509.6973	3011.3436	3019.1713	3030.0209	3039.987	3064.0939	3097.2626	3101.9325	3128.856	3137.9671	3214.7429	3231.2682	3804.8915
CCCC1(O)CC1	CCCC1(O)CC1	
InChI=1S/C6H12O/c1-2-3-6(7)4-5-6/h7H,2-5H2,1H3	InChI=1S/C6H12O/c1-2-3-6(7)4-5-6/h7H,2-5H2,1H3
