12
gdb 310	9.88123	2.46668	2.12799	3.0457	46.78	-0.242	-0.0206	0.2214	568.1088	0.095023	-306.369631	-306.363717	-306.362773	-306.399081	21.395	
O	 0.2866976856	 1.2665132901	-0.4201042894	-0.427415
C	 0.0016934445	-0.0335619573	 0.0359452988	 0.128527
C	 0.1266387902	-0.3048349133	 1.5723022261	-0.372836
C	-1.3097639752	-0.8506472333	 1.5241291404	 0.397991
O	-1.970209445	-1.5145016648	 2.2684379352	-0.286687
C	-1.5229208914	-0.309387632	 0.103323916	-0.346041
H	 1.2408089062	 1.3923725494	-0.4050343659	 0.287772
H	 0.5296089031	-0.7947927352	-0.5529891598	 0.081023
H	 0.9027469978	-0.9835681778	 1.9340527654	 0.124678
H	 0.1740126311	 0.6360925841	 2.1318384587	 0.136424
H	-2.0806680036	 0.6336104725	 0.1154497176	 0.145953
H	-1.9720292533	-0.9832797726	-0.628892363	 0.130611
78.0758	288.902	336.8678	391.743	443.164	491.3654	637.7564	661.6469	763.7353	896.2715	938.0879	980.0984	1035.3034	1098.3855	1128.7702	1175.1572	1192.1513	1233.5503	1248.6109	1319.2538	1415.9436	1417.4937	1447.7266	1896.732	3017.0565	3051.946	3060.1127	3119.4071	3126.6528	3818.2808
OC1CC(=O)C1	OC1CC(=O)C1	
InChI=1S/C4H6O2/c5-3-1-4(6)2-3/h3,5H,1-2H2	InChI=1S/C4H6O2/c5-3-1-4(6)2-3/h3,5H,1-2H2
