14
gdb 2462	6.54894	2.46207	2.07216	1.1606	57.46	-0.2379	0.0233	0.2611	649.4191	0.114403	-324.582035	-324.576063	-324.575119	-324.611635	22.616	
C	 0.0242007533	 1.4397586313	 0.0576018246	-0.475974
C	-0.010855723	-0.0440515631	-0.0521004156	 0.394444
N	-0.0787914733	-0.7349999365	-1.1228209496	-0.301997
C	-0.0336117001	-2.1201982735	-0.7200202913	-0.018171
C	 1.2302360201	-2.5649640886	-0.0082063818	-0.317947
C	 0.0529349929	-2.0958358549	 0.7955512568	 0.060859
O	 0.0324896487	-0.7204031649	 1.1390099969	-0.243587
H	 0.9830343716	 1.7723800724	 0.4683021786	 0.145746
H	-0.1166663878	 1.8803981575	-0.9288561028	 0.153749
H	-0.7599031494	 1.7888980244	 0.7364349934	 0.145032
H	-0.611174609	-2.8230223133	-1.3077998027	 0.101586
H	 1.4268603159	-3.6312635194	 0.0173795902	 0.120664
H	 2.108506635	-1.931459932	-0.0764202947	 0.124358
H	-0.4727419151	-2.7200853393	 1.5060683679	 0.111238
136.8105	192.0756	336.1239	377.5963	458.7748	644.6986	664.518	749.0137	765.9979	806.1759	910.0817	940.3222	968.8472	1003.4096	1034.0035	1061.1259	1072.3552	1082.0782	1131.0688	1139.0588	1186.8303	1254.0454	1337.5857	1368.0743	1413.1118	1460.9466	1474.1494	1478.1179	1710.4161	3049.6522	3106.4813	3130.465	3164.6845	3183.7254	3199.8825	3224.6284
CC1=NC2CC2O1	CC1=N[C@H]2C[C@H]2O1	
InChI=1S/C5H7NO/c1-3-6-4-2-5(4)7-3/h4-5H,2H2,1H3	InChI=1S/C5H7NO/c1-3-6-4-2-5(4)7-3/h4-5H,2H2,1H3/t4-,5+/m0/s1
