12
gdb 854	6.948	2.19023	1.66874	1.7543	51.9	-0.1739	0.0622	0.2361	688.6177	0.092224	-356.732791	-356.726366	-356.725421	-356.762581	24.196	
N	 0.0753366855	 1.3748783379	 0.1634083218	-0.595001
C	-0.029359414	-0.0141051795	 0.0463773912	 0.294324
C	-1.1404915501	-0.8125630352	 0.0790705671	-0.199283
N	-0.6378914905	-2.1225184595	-0.0012506992	-0.296602
C	 0.7019950788	-2.0130074121	-0.0766282724	 0.451234
O	 1.4675744361	-3.1143963551	-0.1694609078	-0.426841
N	 1.1235300975	-0.773543985	-0.0541805795	-0.406786
H	 0.9430915353	 1.7038024246	-0.2399638521	 0.246344
H	-0.7074906913	 1.8704937415	-0.2414788271	 0.239855
H	-2.193276856	-0.6091839719	 0.1611439586	 0.112029
H	-1.1634696339	-2.9785868529	-0.0080738925	 0.268244
H	 2.3806750327	-2.8034795528	-0.2017168782	 0.312483
201.4165	240.8058	291.6582	320.5868	398.1991	438.8189	487.4931	584.0132	635.2999	663.8827	721.7302	754.2853	785.9947	1011.2338	1038.4674	1082.1337	1123.8011	1198.739	1286.8803	1341.3886	1415.585	1576.7225	1622.8571	1630.4638	1660.765	3289.1009	3542.879	3638.9219	3686.9961	3810.5298
NC1=CNC(O)=N1	Nc1c[nH]c(O)n1	
InChI=1S/C3H5N3O/c4-2-1-5-3(7)6-2/h1H,4H2,(H2,5,6,7)	InChI=1S/C3H5N3O/c4-2-1-5-3(7)6-2/h1H,4H2,(H2,5,6,7)
