17
gdb 1858	5.20515	1.9386	1.60148	1.6855	65.54	-0.2457	0.0143	0.26	810.3362	0.148942	-309.731599	-309.724469	-309.723525	-309.762687	27.012	
C	 0.0639077975	 1.5805375591	-0.0204280248	-0.394813
C	 0.0479861441	 0.0482815614	 0.0234567922	-0.01049
C	 0.7442547063	-0.6360308153	-1.1822925494	-0.251032
C	 1.4869131798	-1.8764990224	-0.6174476841	 0.112315
O	 2.7499619265	-2.1279856176	-1.2210687734	-0.433612
C	 1.5507613751	-1.5829966251	 0.864481421	-0.130932
C	 0.7849650314	-0.5483449348	 1.2043092687	-0.061161
H	 1.091503889	 1.9595163834	-0.0517501328	 0.113004
H	-0.4598842873	 1.9544051061	-0.9064295064	 0.115489
H	-0.4251896275	 2.008626596	 0.8612763319	 0.112423
H	-1.0034549014	-0.2735865531	 0.0683615847	 0.082831
H	 0.0552063452	-0.8863123623	-1.9926510297	 0.100578
H	 1.4985030821	 0.0421676442	-1.6011086907	 0.092788
H	 0.9202155135	-2.7977520989	-0.8050587782	 0.092357
H	 3.319985068	-1.3798267061	-1.0100556117	 0.271362
H	 2.1439311658	-2.1919195865	 1.5381562351	 0.096503
H	 0.652258192	-0.1694658379	 2.2133105975	 0.092391
66.995	213.8602	243.339	288.2399	339.3541	410.7345	418.326	567.1152	581.0097	740.1228	784.506	843.7398	866.8034	920.2726	939.11	983.1658	1026.036	1050.3497	1068.8644	1118.6431	1130.0117	1151.2284	1199.1273	1253.3168	1288.0916	1310.9311	1323.4533	1338.6769	1378.92	1409.2197	1431.1768	1484.4383	1497.3392	1498.6591	1682.2098	2985.2114	3023.0446	3026.4919	3034.71	3095.0712	3098.6908	3101.4572	3171.1168	3201.7623	3793.2186
CC1CC(O)C=C1	C[C@H]1C[C@@H](O)C=C1	
InChI=1S/C6H10O/c1-5-2-3-6(7)4-5/h2-3,5-7H,4H2,1H3	InChI=1S/C6H10O/c1-5-2-3-6(7)4-5/h2-3,5-7H,4H2,1H3/t5-,6+/m1/s1
