11
gdb 1021	9.05071	1.94203	1.59894	6.359	58.94	-0.2362	-0.0066	0.2296	700.6498	0.081599	-302.355005	-302.349469	-302.348525	-302.384265	20.53	
N	 0.0189234355	-1.1510396789	-0.0038291254	-0.350055
C	 0.0050432284	 0.0075342427	 0.0028236468	 0.194555
C	-0.0016394152	 1.4237727376	 0.0107592091	 0.171702
C	-1.1286452449	 2.2284581632	 0.0301589946	-0.163292
N	-0.7054743666	 3.5217393899	 0.031661304	-0.228886
C	 0.6692735403	 3.5746374284	 0.0138069632	-0.059041
C	 1.139590962	 2.28829227	 0.0004739052	-0.248799
H	-2.1735322869	 1.9670645086	 0.0425426804	 0.148518
H	-1.3134748296	 4.3224445879	 0.0441469868	 0.275764
H	 1.1890223831	 4.5184937308	 0.0121576859	 0.137049
H	 2.1713407439	 1.9771432398	-0.0148887505	 0.122484
175.1569	176.6407	510.0772	536.9562	562.3836	569.1041	637.4636	667.8886	709.7056	797.9144	851.871	905.2109	969.1096	1079.2942	1104.9517	1164.313	1262.7489	1315.1682	1389.7927	1458.9548	1529.9736	1588.1077	2345.1088	3265.2423	3279.2941	3284.3772	3681.1262
N#CC1=CNC=C1	N#Cc1c[nH]cc1	
InChI=1S/C5H4N2/c6-3-5-1-2-7-4-5/h1-2,4,7H	InChI=1S/C5H4N2/c6-3-5-1-2-7-4-5/h1-2,4,7H
