9
gdb 785	9.69787	3.94239	2.80294	2.8755	39.4	-0.2392	0.0082	0.2475	424.4139	0.064531	-317.433049	-317.428506	-317.427562	-317.460725	16.443	
O	 0.1055819993	 1.2910077282	-0.1291418102	-0.403556
C	 0.0669875091	-0.0447821159	-0.0573384856	 0.433996
N	-0.0313791042	-0.7898360658	-1.1437977676	-0.285039
N	-0.0349732563	-2.0408598625	-0.5990320337	-0.17734
C	 0.0582827737	-1.9766653231	 0.7380041549	 0.030427
N	 0.1259235535	-0.7150064772	 1.1268893409	-0.346088
H	 0.1778047684	 1.6127197856	 0.7774022054	 0.312284
H	-0.1021160418	-2.8439149308	-1.2012233184	 0.284667
H	 0.0735497784	-2.8462166284	 1.3774835043	 0.150649
334.0616	405.7218	447.7685	500.1335	670.3803	741.9624	772.7199	848.3337	992.013	1015.6973	1093.9884	1162.843	1233.838	1301.9385	1399.7284	1484.8229	1526.3657	1640.427	3260.3459	3676.3781	3816.3197
OC1=NNC=N1	Oc1n[nH]cn1	
InChI=1S/C2H3N3O/c6-2-3-1-4-5-2/h1H,(H2,3,4,5,6)	InChI=1S/C2H3N3O/c6-2-3-1-4-5-2/h1H,(H2,3,4,5,6)
