13
gdb 4644	7.0947	1.26433	1.08032	4.6551	67.84	-0.2438	-0.0279	0.2159	1025.1239	0.096343	-361.517219	-361.510178	-361.509234	-361.548654	25.284	
C	 0.0675249104	 1.4815008179	 0.0047716098	-0.490023
C	-0.0758664585	 0.0034173559	 0.0150693896	 0.38918
C	-1.1248335713	-0.8391835635	-0.1618710901	-0.39504
C	-0.6005154762	-2.1755776203	-0.0289887773	 0.16048
C	 0.7349059662	-2.0307477899	 0.2197495089	-0.10044
O	 1.0630153036	-0.7241477148	 0.2486931175	-0.166931
C	-1.3100648093	-3.3970973848	-0.132170094	 0.200344
N	-1.8999797036	-4.3898189059	-0.2185366174	-0.339312
H	 0.7692688932	 1.8086376655	-0.7700819464	 0.148337
H	-0.9014222759	 1.9449363435	-0.1906196268	 0.145424
H	 0.4403027447	 1.8526719483	 0.9655779643	 0.148334
H	-2.1485432896	-0.5683437813	-0.3621707294	 0.135082
H	 1.5299389064	-2.7374643706	 0.3879149813	 0.164564
118.1948	144.8448	151.3579	270.1675	335.7618	516.9086	518.0496	570.9391	633.2988	666.8673	706.1597	772.1864	830.8065	936.5345	996.3559	1018.7952	1066.7265	1160.9866	1194.6071	1228.6063	1299.445	1371.8898	1418.5283	1472.3532	1487.188	1576.4329	1647.5722	2351.6189	3037.4496	3091.2764	3136.9136	3273.0944	3287.5524
CC1=CC(=CO1)C#N	Cc1cc(co1)C#N	
InChI=1S/C6H5NO/c1-5-2-6(3-7)4-8-5/h2,4H,1H3	InChI=1S/C6H5NO/c1-5-2-6(3-7)4-8-5/h2,4H,1H3
