10
gdb 18	10.12193	8.49011	4.89615	2.7362	35.53	-0.2431	-0.0087	0.2344	292.4367	0.083382	-193.08834	-193.082969	-193.082024	-193.116476	16.893	
C	-0.0031018943	 1.4805032759	-0.1725986671	-0.468686
C	-0.0452720177	-0.0288705905	 0.0013949255	 0.391521
C	 1.2970580043	-0.7219441456	 0.168890419	-0.468685
O	-1.0864317248	-0.6427334329	 0.0063039331	-0.28561
H	 0.5940352949	 1.7466857904	-1.0522504319	 0.136467
H	-1.0154040683	 1.8703402288	-0.2838226498	 0.142771
H	 0.480995996	 1.9507060483	 0.6909937592	 0.136492
H	 1.8251214432	-0.3247073087	 1.0432865792	 0.136469
H	 1.1489250739	-1.7959768947	 0.2855439305	 0.142771
H	 1.9368263527	-0.5294969212	-0.6999540277	 0.136491
61.3307	145.6544	373.6911	490.0151	527.8646	781.3271	880.2039	880.8984	1082.2399	1117.8592	1229.8248	1381.5883	1382.3043	1458.7355	1465.5836	1468.5562	1488.1501	1820.9076	3031.4935	3038.2628	3090.6646	3097.9112	3151.9959	3153.1865
CC(C)=O	CC(=O)C	
InChI=1S/C3H6O/c1-3(2)4/h1-2H3	InChI=1S/C3H6O/c1-3(2)4/h1-2H3
