15
gdb 2277	7.78887	1.55137	1.368	4.3603	62.09	-0.2384	0.0225	0.261	862.3786	0.126011	-304.681903	-304.675041	-304.674096	-304.71314	24.292	
N	 0.0760568771	-1.1901891413	-0.1793567065	-0.303516
C	 0.0386337874	-0.0374484961	-0.1184285472	 0.277291
C	-0.0131237625	 1.4258452362	-0.0153099606	-0.287531
N	 1.3115065483	 1.9958705627	 0.0948501213	-0.06549
C	 2.076360981	 1.7990440836	 1.3471547833	-0.159596
C	 2.6032659049	 3.247212749	 1.2023276733	-0.226178
C	 1.4183300319	 3.4644522384	 0.2305655213	-0.162083
H	-0.4965662213	 1.8182649494	-0.9181640096	 0.155012
H	-0.6712505434	 1.6821448602	 0.8390259505	 0.12286
H	 1.4287861824	 1.6815681687	 2.2315062201	 0.09232
H	 2.7925606801	 0.973591283	 1.3204373581	 0.122261
H	 2.6266730954	 3.8607308686	 2.1024729345	 0.111625
H	 3.5708171933	 3.2941032016	 0.7006487673	 0.122542
H	 1.5983452094	 3.9989420237	-0.7073455619	 0.111697
H	 0.548921516	 3.9154316922	 0.7375080962	 0.088785
73.0816	125.1774	187.3908	331.3307	337.618	391.2739	499.7348	691.5921	776.2174	845.9238	926.1676	933.8227	943.1167	978.2733	1004.5048	1101.2852	1133.9109	1147.2979	1209.2135	1216.309	1226.0464	1264.4467	1272.7639	1300.5518	1344.2981	1389.6801	1471.4406	1488.4042	1505.0259	1532.8234	2367.0093	2907.0072	2963.1617	2974.136	3055.0715	3069.0118	3084.4685	3094.1601	3149.7437
N#CCN1CCC1	N#CCN1CCC1	
InChI=1S/C5H8N2/c6-2-5-7-3-1-4-7/h1,3-5H2	InChI=1S/C5H8N2/c6-2-5-7-3-1-4-7/h1,3-5H2
