12
gdb 654	7.4502	3.53716	3.25337	1.8437	46.16	-0.2388	0.0631	0.3019	452.7784	0.096525	-306.286325	-306.281284	-306.28034	-306.314443	19.211	
O	 0.008945505	 1.4741263255	-0.1064024684	-0.426785
C	 0.0255679975	 0.079639083	-0.0087153116	 0.133325
C	-0.0925675766	-0.6445545722	 1.3735210879	 0.009213
C	-1.532604048	-0.1016985945	 1.5215818801	-0.223115
C	-1.3428414454	-0.632404189	 0.07994489	 0.033882
O	-0.6235496099	-1.8052931713	 0.6277584472	-0.309684
H	 0.9158802288	 1.7930403398	-0.0703445006	 0.292159
H	 0.7289760766	-0.4060394486	-0.6936640948	 0.084529
H	 0.6636385189	-0.8404965526	 2.13473065	 0.090119
H	-2.1895566936	-0.7026742373	 2.151180493	 0.105837
H	-1.6597226377	 0.9734622764	 1.6517350169	 0.114977
H	-2.0806587456	-0.8124589192	-0.7019557096	 0.095542
255.257	310.5766	354.3889	555.9408	596.9685	742.3355	824.04	873.5039	887.3624	905.1703	934.7691	1013.1663	1050.9033	1099.9602	1119.1055	1166.3884	1176.4019	1195.7459	1210.6805	1261.0493	1265.5089	1304.8658	1416.1099	1482.1477	3059.0674	3083.3823	3111.9702	3123.8551	3163.7205	3825.374
OC1C2CC1O2	O[C@H]1[C@H]2C[C@@H]1O2	
InChI=1S/C4H6O2/c5-4-2-1-3(4)6-2/h2-5H,1H2	InChI=1S/C4H6O2/c5-4-2-1-3(4)6-2/h2-5H,1H2/t2-,3+,4+
