13
gdb 696	8.31313	4.25097	4.22223	1.6815	53.69	-0.2293	0.0946	0.324	410.3314	0.109902	-249.24868	-249.244386	-249.243442	-249.275913	17.197	
C	-0.0941203694	 1.6129760182	 0.0134252322	-0.249881
C	 1.4042727182	 1.2975401849	 0.0341573395	 0.006263
C	 1.2545045365	 0.0770944908	 0.9924171628	-0.058511
C	 2.007108838	-0.7843533623	-0.0142894282	-0.180591
N	 1.216035856	 0.1155238023	-0.9594638659	-0.157193
C	 0.0223051141	 0.08622294	 0.0375433526	 0.006263
H	-0.5125396695	 2.0928258514	 0.9017015628	 0.098822
H	-0.481905032	 2.0528125198	-0.909089242	 0.109285
H	 2.2642560988	 1.962984512	-0.0637927019	 0.081825
H	 1.2591867601	 0.0748174724	 2.088072334	 0.064287
H	 3.0917615772	-0.6573178928	-0.0982221342	 0.098803
H	 1.7388039038	-1.8432053929	-0.0949054467	 0.098803
H	-0.7503632317	-0.6793742437	-0.0564053649	 0.081825
414.1096	419.0524	697.2786	762.7322	817.9887	846.7734	868.6193	874.0283	907.0185	950.1349	1013.8718	1021.9351	1031.364	1041.0782	1101.5575	1134.4572	1143.6677	1167.7078	1184.7958	1198.6558	1231.6411	1269.7972	1278.8705	1319.1648	1486.8811	1516.8403	3030.1736	3043.9179	3056.693	3091.2164	3094.2651	3101.8049	3123.2103
C1C2C3CN2C13	C1[C@H]2[C@@H]3CN2[C@H]13	
InChI=1S/C5H7N/c1-4-3-2-6(4)5(1)3/h3-5H,1-2H2	InChI=1S/C5H7N/c1-4-3-2-6(4)5(1)3/h3-5H,1-2H2/t3-,4-,5+
