16
gdb 2290	7.93749	1.44441	1.32251	2.0924	64.71	-0.247	0.0312	0.2782	944.0004	0.136715	-325.775071	-325.767648	-325.766704	-325.807533	25.875	
C	 1.0168349825	 0.7113177326	-0.3917352157	-0.359007
C	-0.4185262242	 0.3911073599	 0.0275548599	-0.148553
N	-0.8068220893	-0.9288046565	-0.4643904572	-0.325328
C	-1.8701284683	-1.06075963	-1.1053587137	 0.462381
C	-2.5870496733	-2.2175448217	-1.7708495757	-0.372375
C	-3.6242906539	-1.1402796531	-2.1471951913	-0.075578
O	-2.8362201528	-0.1238008833	-1.4597525704	-0.262459
H	 1.3378542584	 1.6685986604	 0.0312725681	 0.107166
H	 1.700177514	-0.0701193524	-0.0472493567	 0.123738
H	 1.0989603085	 0.7743884439	-1.4813358603	 0.115889
H	-0.4755450892	 0.3649034998	 1.1234795436	 0.106594
H	-1.0993136087	 1.1823473013	-0.3125653593	 0.10889
H	-2.0462577519	-2.6763040045	-2.60019014	 0.137545
H	-2.9318943411	-2.9953833932	-1.0875333449	 0.137883
H	-3.7181863562	-0.9098930407	-3.2114336149	 0.121532
H	-4.6139147244	-1.2401242625	-1.6944490614	 0.121683
32.1046	132.852	166.9353	188.8589	272.8446	385.3999	495.6271	576.025	740.2898	790.0776	813.8581	893.6181	919.7072	963.5954	1010.5532	1055.8392	1072.5283	1105.0498	1123.9037	1159.4017	1178.8742	1200.5482	1241.2652	1302.6702	1349.8273	1382.2768	1406.4378	1467.9848	1488.5254	1493.2743	1510.5149	1522.1665	1846.3969	3009.7741	3037.3184	3045.1508	3060.7135	3087.2219	3108.0628	3113.0817	3117.305	3142.5302
CCN=C1CCO1	CCN=C1CCO1	
InChI=1S/C5H9NO/c1-2-6-5-3-4-7-5/h2-4H2,1H3	InChI=1S/C5H9NO/c1-2-6-5-3-4-7-5/h2-4H2,1H3
