15
gdb 4299	3.82636	1.83266	1.24872	4.2198	71.72	-0.2128	-0.0309	0.1819	931.7077	0.120942	-362.74464	-362.737679	-362.736734	-362.775778	26.432	
C	-0.0233486015	 1.5236015107	 0.0320102191	-0.489003
C	 0.0030103863	 0.0181100927	 0.0006331365	 0.348273
C	-0.0266197464	-0.6728750992	-1.1770098379	-0.342764
C	-0.001878951	-2.1208785017	-1.2427235433	 0.434935
O	-0.0251307784	-2.8149527663	-2.2464884739	-0.403601
N	 0.055359142	-2.7262898655	 0.0304758097	-0.362139
C	 0.0854666319	-2.0558152644	 1.2133418513	 0.045272
C	 0.061056335	-0.6984861767	 1.2398934185	-0.239637
H	 0.8712792957	 1.9177500024	 0.5277272993	 0.137113
H	-0.0729394192	 1.946031262	-0.9737111815	 0.133028
H	-0.8871524867	 1.8856851562	 0.6012854512	 0.136907
H	-0.0707202132	-0.1615057958	-2.1315868142	 0.107564
H	 0.0734321191	-3.736263848	 0.0096642217	 0.260394
H	 0.1290334293	-2.6666576436	 2.1073171309	 0.13358
H	 0.0852880671	-0.1730928628	 2.1856288926	 0.100079
120.3753	177.348	200.2165	304.2122	420.8425	475.1341	503.5539	560.8718	586.7441	700.7876	752.6192	759.8348	775.2881	888.2734	906.5447	930.1427	988.4492	1037.2994	1062.2598	1124.8735	1173.2356	1215.2646	1250.8047	1341.6015	1408.4989	1432.0967	1480.4081	1486.02	1507.7321	1581.9653	1675.4061	1782.0509	3031.7168	3084.7545	3128.1247	3199.0926	3202.1205	3220.1804	3610.6167
CC1=CC(=O)NC=C1	Cc1cc(=O)[nH]cc1	
InChI=1S/C6H7NO/c1-5-2-3-7-6(8)4-5/h2-4H,1H3,(H,7,8)	InChI=1S/C6H7NO/c1-5-2-3-7-6(8)4-5/h2-4H,1H3,(H,7,8)
