12
gdb 3305	6.16472	2.18423	1.93699	5.0994	54.15	-0.2789	0.0204	0.2993	652.1015	0.090689	-323.344889	-323.339112	-323.338168	-323.374574	21.132	
N	 0.0261109362	-1.1843091034	-0.1253464404	-0.321516
C	 0.0164285941	-0.0311160867	-0.0479522771	 0.284985
C	-0.0016641383	 1.4198093983	 0.0473561256	-0.180029
C	-0.2428501432	 2.0780681822	 1.4646719529	-0.264254
C	 1.1125948005	 2.7783830439	 1.3091884065	 0.038252
O	 2.0973414407	 1.7508740721	 1.1570789815	-0.222987
C	 1.3657893769	 2.1459265209	 0.0052664795	 0.02455
H	-0.6954038162	 1.8272739921	-0.6925113822	 0.132394
H	-1.1014818594	 2.751376599	 1.4542522629	 0.12439
H	-0.313248786	 1.3900345345	 2.3080079662	 0.140163
H	 1.4411504217	 3.7299264489	 1.7077517099	 0.121228
H	 1.9192360829	 2.4655135681	-0.8690849153	 0.122824
124.352	181.8999	325.4939	436.2591	523.4328	604.9747	732.4132	796.6938	851.4517	866.025	911.7284	935.5043	1001.6753	1022.3332	1047.3833	1081.5291	1143.9168	1192.6286	1233.9054	1239.7056	1270.6101	1332.4504	1392.0653	1473.0459	2359.1235	3083.5605	3088.5675	3149.8005	3194.9764	3210.2419
N#CC1CC2OC12	N#C[C@H]1C[C@H]2O[C@@H]12	
InChI=1S/C5H5NO/c6-2-3-1-4-5(3)7-4/h3-5H,1H2	InChI=1S/C5H5NO/c6-2-3-1-4-5(3)7-4/h3-5H,1H2/t3-,4-,5+/m1/s1
