11
gdb 1026	8.19008	2.09692	1.66948	4.0399	57.19	-0.249	-0.0596	0.1894	679.6311	0.079467	-343.292778	-343.287243	-343.286298	-343.32225	19.823	
O	-0.0171698746	-0.0604252062	-0.0004672275	-0.276969
C	-0.0017655763	 1.1494640968	 0.0090174729	 0.068908
C	 1.1886437039	 1.9835986341	 0.0024929682	 0.269831
C	 1.3289647036	 3.3485431278	 0.0117076101	-0.233452
C	 2.7258585357	 3.6120514575	-0.0016989407	-0.173157
C	 3.330065919	 2.3873599335	-0.017819602	 0.006747
O	 2.4205015393	 1.3948939371	-0.0155801239	-0.148697
H	-0.9373121403	 1.7510952924	 0.0237869476	 0.078244
H	 0.5233580818	 4.0666289673	 0.0261926889	 0.130912
H	 3.21787351	 4.5714752926	 0.0003373198	 0.126701
H	 4.3627888078	 2.0773134471	-0.0315763233	 0.150932
138.2757	199.7238	298.0785	501.8025	610.6126	661.8461	768.2965	786.9752	836.433	880.6886	901.1313	948.9473	1020.3515	1044.6587	1113.9285	1200.6394	1246.4317	1293.051	1405.2837	1429.6322	1507.8739	1604.8365	1791.0044	2888.7871	3254.4225	3264.7622	3283.5712
O=CC1=CC=CO1	O=Cc1ccco1	
InChI=1S/C5H4O2/c6-4-5-2-1-3-7-5/h1-4H	InChI=1S/C5H4O2/c6-4-5-2-1-3-7-5/h1-4H
