16
gdb 548	18.03364	1.21229	1.16922	2.365	54.26	-0.2515	0.078	0.3295	991.9169	0.141312	-308.749822	-308.741831	-308.740887	-308.78212	26.355	
C	-0.0285188251	 1.3617197334	-0.0117158359	-0.227173
O	 0.0052508514	-0.0436106726	 0.0029634999	-0.228534
C	 0.6758690526	-0.5645988932	 1.1292153339	-0.050818
C	 0.6535025911	-2.0840789237	 1.0442451415	-0.181263
C	 1.3558339321	-2.7478558239	 2.2209117726	-0.071776
O	 1.2733886567	-4.1527125025	 2.0361375207	-0.419321
H	 0.9839261691	 1.7967842813	-0.0349045738	 0.10114
H	-0.5637534085	 1.6680322249	-0.9138992427	 0.126531
H	-0.5532715391	 1.7692795368	 0.8677135179	 0.101136
H	 1.7157605557	-0.1924866028	 1.1610035031	 0.081705
H	 0.1871476522	-0.2201686346	 2.0583988101	 0.081695
H	-0.3849366465	-2.4293630051	 1.0039642238	 0.116401
H	 1.133933044	-2.4019376416	 0.1129268161	 0.116406
H	 2.4057266825	-2.4137180379	 2.2684433086	 0.08431
H	 0.8760452272	-2.4419309057	 3.1655699622	 0.08432
H	 1.7147050347	-4.5790578029	 2.7763777021	 0.285241
75.9911	100.9931	138.3628	143.6443	239.3813	266.9909	334.9663	378.6611	516.8149	780.4193	891.6147	973.8378	1034.9904	1058.3657	1092.1059	1166.6455	1168.8574	1192.2603	1218.0146	1234.4497	1257.1392	1303.6908	1307.71	1321.4319	1430.3931	1468.6861	1482.7703	1485.6752	1498.4483	1505.6717	1527.0847	1537.5119	2934.9602	2956.8052	2958.5596	2965.6796	2980.6441	3005.9111	3052.025	3098.2422	3112.4161	3830.1672
COCCCO	COCCCO	
InChI=1S/C4H10O2/c1-6-4-2-3-5/h5H,2-4H2,1H3	InChI=1S/C4H10O2/c1-6-4-2-3-5/h5H,2-4H2,1H3
