13
gdb 4986	3.38729	2.47093	1.42997	1.4474	64.98	-0.2097	-0.0259	0.1839	798.7865	0.098427	-394.846901	-394.840471	-394.839527	-394.877136	25.242	
N	-0.0648027412	 1.3990137356	-0.113397694	-0.564909
C	-0.0375700553	 0.0272407683	-0.0473392769	 0.310561
N	-1.1709724295	-0.651047193	 0.0296698949	-0.315911
C	-1.0869798301	-1.9944613024	 0.0305752397	-0.034926
C	 0.1211093423	-2.655607754	-0.033065074	-0.052645
N	 1.2843757922	-1.9714399136	-0.0956994504	-0.331944
C	 1.2034923836	-0.6673218414	-0.1041943951	 0.378754
O	 2.3334978986	 0.0800307044	-0.1573579526	-0.431228
H	 0.7793802167	 1.8804276954	 0.1514551205	 0.267038
H	-0.9300945352	 1.8226794883	 0.184429073	 0.25852
H	-2.0241151735	-2.5394882312	 0.0895263334	 0.107488
H	 0.1856128831	-3.7381969689	-0.0297031091	 0.108944
H	 3.0723579985	-0.5441137675	-0.1759203295	 0.300257
160.4625	300.2673	321.394	419.9176	441.1763	484.7122	494.8324	552.4119	565.63	604.8326	605.8335	781.1533	814.7367	854.9433	921.6027	949.277	1053.655	1106.6287	1160.5067	1265.0657	1313.6245	1340.0059	1392.1439	1487.5143	1515.1797	1592.6582	1627.0708	1653.1526	3170.6283	3193.9383	3585.7123	3708.0841	3765.9028
NC1=NC=CN=C1O	Nc1nccnc1O	
InChI=1S/C4H5N3O/c5-3-4(8)7-2-1-6-3/h1-2H,(H2,5,6)(H,7,8)	InChI=1S/C4H5N3O/c5-3-4(8)7-2-1-6-3/h1-2H,(H2,5,6)(H,7,8)
