14
gdb 2437	5.5898	2.87095	2.46761	2.2337	56.31	-0.2192	0.0704	0.2896	579.2226	0.114563	-324.485629	-324.480142	-324.479197	-324.514423	22.186	
O	-0.0838526699	 1.3460968039	-0.0354150031	-0.460078
C	 0.0718243846	-0.022359839	-0.019454443	 0.366832
C	 0.942838855	-0.9068335154	-0.8963688172	-0.234746
N	 0.0522723431	-2.0735438534	-0.5032432018	-0.167512
C	 0.3718763441	-2.2248147628	 0.9770800819	-0.174706
C	-0.2944766425	-0.886801863	 1.2186900347	-0.15192
C	-1.0198056885	-1.0372212362	-0.0951223142	-0.075359
H	 0.5680083474	 1.7363123439	 0.5575947922	 0.28921
H	 0.8127551596	-0.6927651273	-1.9604871482	 0.114052
H	 2.0064888466	-1.0451882179	-0.6688099099	 0.092616
H	-0.1905498939	-3.0704429018	 1.382877124	 0.110436
H	 1.4375729621	-2.3526797276	 1.2005022818	 0.095523
H	-0.6504800569	-0.4170061511	 2.1278956982	 0.090293
H	-2.0535001508	-1.0296233923	-0.4084131653	 0.10536
268.0441	323.6456	360.6882	452.4532	473.4303	616.1794	702.7135	777.8144	827.7844	839.1394	888.5476	905.3196	932.1905	968.4697	1010.8965	1037.0767	1079.3666	1100.8511	1117.9896	1148.1393	1183.309	1212.7783	1239.9329	1273.5119	1302.0693	1318.291	1443.2132	1503.6154	1522.5533	3026.5012	3036.5266	3090.7749	3101.8061	3184.3043	3226.6714	3790.8908
OC12CN3CC1C23	O[C@@]12CN3C[C@@H]1[C@@H]23	
InChI=1S/C5H7NO/c7-5-2-6-1-3(5)4(5)6/h3-4,7H,1-2H2	InChI=1S/C5H7NO/c7-5-2-6-1-3(5)4(5)6/h3-4,7H,1-2H2/t3-,4+,5+/m1/s1
