17
gdb 3984	6.13298	0.79579	0.7401	2.2509	69.61	-0.2463	-0.0258	0.2205	1466.419	0.138576	-400.973076	-400.963491	-400.962547	-401.008934	32.368	
C	 0.1359535171	 1.5475348283	-0.0184683069	-0.47226
C	-0.0269909318	 0.0510925257	-0.0260941939	 0.360919
C	-0.0036159661	-0.7180607623	 1.2691410931	-0.286147
C	 1.3861234636	-0.6965212676	 1.9472049914	-0.271917
C	 1.3978845634	-1.5390797542	 3.2029452414	 0.158381
O	 1.6892594176	-1.1386749903	 4.2997995157	-0.233224
N	-0.1846892514	-0.646640664	-1.0859660347	-0.161972
O	-0.1715707372	 0.1534923721	-2.2394994797	-0.398374
H	 1.0987220334	 1.8352358311	-0.4552479171	 0.148845
H	-0.6361551016	 2.0129674289	-0.637498545	 0.152619
H	 0.0796797181	 1.9508792207	 0.9946511361	 0.122373
H	-0.742427675	-0.2893590604	 1.9587963116	 0.119973
H	-0.2999892943	-1.7506700391	 1.0627275256	 0.123565
H	 2.1210571759	-1.1212483421	 1.2495888314	 0.130035
H	 1.7006801923	 0.3180221622	 2.2062183944	 0.125015
H	 1.098734163	-2.6018324502	 3.0417945197	 0.074877
H	-0.330003547	-0.4927432191	-2.9355832132	 0.307291
50.337	60.7817	68.4515	97.0928	147.4385	277.0316	304.9392	349.6543	372.3156	415.1931	511.6519	558.9273	647.9887	773.3773	817.5425	856.6064	967.7904	1003.9473	1016.1836	1028.3686	1085.6996	1105.479	1198.007	1264.3509	1266.8085	1311.4671	1358.8902	1400.3452	1401.6611	1428.37	1463.8841	1474.9889	1484.775	1486.3347	1728.5669	1837.1666	2854.8807	3019.6937	3030.6107	3043.1686	3088.9507	3102.6269	3109.7898	3134.3813	3821.2404
CC(CCC=O)=NO	CC(=NO)CCC=O	
InChI=1S/C5H9NO2/c1-5(6-8)3-2-4-7/h4,8H,2-3H2,1H3	InChI=1S/C5H9NO2/c1-5(6-8)3-2-4-7/h4,8H,2-3H2,1H3
