16
gdb 1918	5.95499	2.14442	1.86806	1.9799	61.03	-0.2034	0.0781	0.2816	720.1263	0.136093	-325.717725	-325.710794	-325.70985	-325.748014	26.53	
C	-0.1718449506	 1.4826183398	 0.0326472075	-0.32273
N	 0.0867818612	 0.0551409675	 0.0370524219	-0.067077
C	 1.1517817928	-0.4806561112	-0.8625199201	-0.239861
C	 1.810543615	-1.153172744	 0.3486006286	 0.373377
O	 2.2682522771	-2.4561055723	 0.3681095732	-0.46054
C	 2.1846526889	-0.1157768324	 1.3769441632	-0.359012
C	 0.7323690541	-0.5380751438	 1.2063726396	-0.061016
H	 0.7181422643	 2.1094319422	 0.2226223078	 0.090828
H	-0.5885584636	 1.7739650701	-0.9370395855	 0.119691
H	-0.9168317955	 1.7164446109	 0.8004234787	 0.121044
H	 0.7487120265	-1.1894419972	-1.5932013919	 0.112076
H	 1.7539532384	 0.2781226785	-1.3812648469	 0.087872
H	 3.2175868166	-2.444763227	 0.2052071393	 0.286738
H	 2.6567251814	-0.5272873089	 2.2641964034	 0.113969
H	 2.5314924066	 0.8738322241	 1.0901599568	 0.10503
H	 0.1486574969	-0.9528899663	 2.0209217846	 0.099609
160.9295	214.6448	246.8137	271.8671	367.2026	406.6862	415.0786	497.454	605.2937	695.5262	826.1003	852.4258	913.9732	965.3908	975.226	996.9486	1037.6318	1064.0347	1080.7893	1118.3068	1163.3567	1207.2827	1220.4164	1227.8082	1279.5736	1295.3235	1330.2926	1415.2931	1450.2748	1484.7723	1486.5824	1500.3782	1511.2159	2941.4931	3004.2243	3058.2352	3071.549	3099.961	3108.3613	3170.0419	3201.5641	3797.5504
CN1CC2(O)CC12	CN1C[C@@]2(O)C[C@@H]12	
InChI=1S/C5H9NO/c1-6-3-5(7)2-4(5)6/h4,7H,2-3H2,1H3	InChI=1S/C5H9NO/c1-6-3-5(7)2-4(5)6/h4,7H,2-3H2,1H3/t4-,5+/m1/s1
