16
gdb 4803	6.17214	1.19493	1.04554	1.8898	69.16	-0.1758	0.0374	0.2133	1098.866	0.132119	-379.944455	-379.936353	-379.935409	-379.977075	30.045	
N	-0.3236845217	 1.4132611089	 0.4727788516	-0.604913
C	-0.023257642	 0.0676013848	 0.1783422197	 0.264283
C	-0.8049361479	-0.8290695435	-0.5208869069	-0.169333
N	-0.1725357746	-2.0551797647	-0.4778829249	-0.284767
C	 1.0065079484	-1.9516473113	 0.2077380051	 0.28897
C	 1.8833211056	-3.1435999058	 0.4028419633	-0.178754
O	 2.0564105726	-3.89802883	-0.7982507689	-0.419569
C	 1.1257115839	-0.6434975524	 0.6328200235	-0.316419
H	 0.5063007834	 1.9930693215	 0.4826141276	 0.237722
H	-0.9843316891	 1.8116945974	-0.1827119252	 0.235249
H	-1.7420696125	-0.6964209707	-1.0369207849	 0.102289
H	-0.4589323858	-2.884771384	-0.9676426455	 0.261121
H	 2.8436906889	-2.8182173108	 0.827653645	 0.101793
H	 1.443484766	-3.8567964224	 1.1111130232	 0.118617
H	 2.4134394854	-3.2946520853	-1.4593804141	 0.280815
H	 1.9357313594	-0.2427743819	 1.2247376113	 0.082897
56.2265	140.3103	177.6773	250.8754	300.263	344.7827	368.4113	463.0855	485.3188	612.885	633.3862	669.1469	689.7591	751.1911	769.595	805.0037	970.9307	980.9488	1000.4162	1045.624	1103.5179	1127.0256	1177.9257	1203.8815	1294.7662	1333.2061	1357.8146	1417.2478	1461.3238	1480.1962	1504.8645	1546.8719	1639.1699	1659.0011	3003.55	3044.8224	3236.1721	3260.9223	3527.2305	3614.7167	3683.075	3800.5394
NC1=CNC(CO)=C1	Nc1c[nH]c(CO)c1	
InChI=1S/C5H8N2O/c6-4-1-5(3-8)7-2-4/h1-2,7-8H,3,6H2	InChI=1S/C5H8N2O/c6-4-1-5(3-8)7-2-4/h1-2,7-8H,3,6H2
