23
gdb 2720	12.05905	0.72076	0.70066	0.0603	79.31	-0.2992	0.091	0.3902	1707.527	0.216981	-276.206318	-276.19656	-276.195616	-276.241061	34.275	
C	-0.0513718476	 1.5936485067	-0.043233181	-0.378773
C	-0.0084399986	 0.0634676249	-0.014059699	-0.162473
C	 0.7236060623	-0.4965885064	 1.2105624998	-0.158438
C	 0.772203917	-2.0277189942	 1.2488408075	-0.1759
C	 1.5040851901	-2.5863556324	 2.4737712999	-0.158436
C	 1.5534113027	-4.1177798653	 2.5132682277	-0.162476
C	 2.2865038692	-4.6659518341	 3.7405564293	-0.378771
H	 0.9590591576	 2.0175004906	-0.057916427	 0.112234
H	-0.5800201515	 1.964068554	-0.927300304	 0.109274
H	-0.5618878698	 1.9919325972	 0.8408424471	 0.11223
H	-1.0323534736	-0.3329402881	-0.0353700553	 0.092617
H	 0.4774834328	-0.307557821	-0.9263168318	 0.092616
H	 1.7483159165	-0.0995050286	 1.2327136336	 0.089435
H	 0.2377366101	-0.125191344	 2.1239033448	 0.089436
H	-0.25271039	-2.4240444477	 1.2264215711	 0.089791
H	 1.2582126576	-2.3983775528	 0.3353700301	 0.089792
H	 2.5292271003	-2.190438434	 2.4968077695	 0.089436
H	 1.0184920149	-2.2161257974	 3.3877328358	 0.089436
H	 0.5290182035	-4.5128824474	 2.4907799375	 0.092617
H	 2.0390871196	-4.4872162385	 1.6002353052	 0.092616
H	 2.3056878753	-5.7604310445	 3.7415974513	 0.109274
H	 3.3241693803	-4.3149975018	 3.770924678	 0.112232
H	 1.8024424312	-4.3408168751	 4.6683569599	 0.112232
67.7689	83.5921	96.8825	146.1336	151.4432	241.2289	243.3417	245.4156	300.6922	413.2981	478.7819	733.0733	738.837	774.1638	847.7545	881.321	917.1567	939.7987	996.7308	1026.9835	1040.0745	1068.3804	1068.6367	1088.9382	1155.9702	1210.556	1244.7466	1261.1002	1295.1944	1321.5659	1326.5858	1334.349	1340.1536	1371.5606	1399.6515	1401.0603	1412.3173	1414.1226	1483.5337	1484.2166	1488.1607	1495.0929	1499.344	1499.4183	1503.7243	1511.4927	1517.3902	2999.8706	3000.	3006.6711	3014.8361	3018.811	3019.8098	3025.7812	3027.9977	3028.4341	3038.1774	3051.5481	3062.9461	3094.2131	3094.5689	3099.1444	3099.2869
CCCCCCC	CCCCCCC	
InChI=1S/C7H16/c1-3-5-7-6-4-2/h3-7H2,1-2H3	InChI=1S/C7H16/c1-3-5-7-6-4-2/h3-7H2,1-2H3
