14
gdb 1041	7.07354	1.93836	1.66451	2.097	58.91	-0.2358	0.0065	0.2423	754.0224	0.11492	-324.616343	-324.609931	-324.608986	-324.64706	22.821	
C	 0.1208671888	 1.5753256312	-0.0704512701	-0.37406
C	-0.0560631807	 0.0533243392	 0.0687804405	-0.296678
C	 0.5843608563	-0.5092548267	 1.2875740756	 0.345919
C	 0.1457782177	-1.1421792299	 2.4038286634	-0.197381
N	 1.2234338714	-1.4403337794	 3.2325890812	-0.256119
C	 2.2435906075	-0.9805443842	 2.5894268053	 0.070487
O	 1.950367117	-0.399926274	 1.4018359208	-0.179879
H	 1.1808133754	 1.8409155288	-0.1087536028	 0.133409
H	-0.3545328202	 1.9351408208	-0.9874862958	 0.117535
H	-0.32823146	 2.0998993693	 0.778058499	 0.125622
H	-1.1201146437	-0.2014768982	 0.106165457	 0.120634
H	 0.3531569619	-0.4430343904	-0.8205840778	 0.121967
H	-0.8649472324	-1.4069519469	 2.6715047914	 0.121345
H	 3.2836992909	-1.0013365795	 2.8746704124	 0.147198
69.4656	156.1529	206.0553	330.4068	399.6605	635.0348	668.3076	705.3738	786.4135	832.479	855.3602	938.823	958.1837	982.6759	1070.0552	1090.9751	1125.4747	1133.6263	1231.5763	1249.4129	1292.2329	1357.2375	1360.0088	1408.7484	1475.65	1496.3106	1506.6441	1553.1372	1639.7161	3026.9725	3043.9814	3079.7432	3116.5946	3123.6273	3262.7613	3275.2325
CCC1=CN=CO1	CCc1cnco1	
InChI=1S/C5H7NO/c1-2-5-3-6-4-7-5/h3-4H,2H2,1H3	InChI=1S/C5H7NO/c1-2-5-3-6-4-7-5/h3-4H,2H2,1H3
