13
gdb 3951	7.38638	1.86262	1.55569	1.4855	54.98	-0.2386	0.0173	0.2558	748.1278	0.104344	-340.646073	-340.639749	-340.638805	-340.676943	22.578	
O	 0.2499931286	 1.2169331501	 0.5823255516	-0.413051
C	 0.0494128376	 0.0359289475	-0.1855856241	-0.174652
C	-1.3509670261	-0.4918980318	-0.0908562469	 0.162588
C	-2.1600969877	-0.5161224271	 1.0309921545	-0.113336
N	-3.3302870784	-1.0790076728	 0.6474223303	-0.173012
N	-3.3539551071	-1.4283818586	-0.6520907793	-0.225737
C	-2.154007787	-1.0705958416	-1.1013263676	-0.088949
H	-0.4134578547	 1.8548560046	 0.2982731832	 0.27999
H	 0.3119182233	 0.1905948772	-1.2438394815	 0.095115
H	 0.771910075	-0.6849967755	 0.2144828883	 0.122025
H	-1.988257861	-0.1764161089	 2.0397848423	 0.143605
H	-4.1496874413	-1.2390032819	 1.208551546	 0.275519
H	-1.8994198511	-1.2390686914	-2.1382092467	 0.109895
45.4653	175.8703	276.7015	355.2151	441.1967	534.0404	640.6412	698.2767	723.6576	805.1463	885.8666	953.3251	983.0147	1009.136	1053.2188	1072.4195	1166.1709	1198.7097	1243.2752	1321.7744	1344.1555	1388.9635	1418.1594	1433.4651	1497.7752	1508.9911	1605.8006	2983.1574	3051.2676	3238.4503	3268.021	3673.7411	3806.8143
OCC1=CNN=C1	OCc1c[nH]nc1	
InChI=1S/C4H6N2O/c7-3-4-1-5-6-2-4/h1-2,7H,3H2,(H,5,6)	InChI=1S/C4H6N2O/c7-3-4-1-5-6-2-4/h1-2,7H,3H2,(H,5,6)
