11
gdb 244	9.62372	2.25349	1.84676	0.9137	45.91	-0.2768	-0.0235	0.2533	633.5112	0.083216	-322.464725	-322.458133	-322.457189	-322.495484	21.339	
C	-0.0145669978	 1.4531915787	-0.0829279363	-0.481507
C	-0.1447852681	-0.0358898813	 0.0804682411	 0.447657
O	-0.439195333	-0.6219862025	 1.0847025385	-0.327144
O	 0.1285314108	-0.6573574918	-1.1178966897	-0.200979
C	 0.0596396438	-2.0279301489	-1.1646853748	 0.118115
N	 0.3098640009	-2.5916162957	-2.2606704045	-0.417105
H	 0.9970420859	 1.7024327417	-0.4157292196	 0.161901
H	-0.7039427555	 1.8028577936	-0.8567220844	 0.161891
H	-0.2313745775	 1.9436398513	 0.8648816751	 0.153717
H	-0.2142123111	-2.471968157	-0.2075625709	 0.143405
H	 0.2228947818	-3.601561688	-2.1551895744	 0.240049
89.0842	111.575	136.0175	226.2317	403.6896	530.0856	592.5089	646.0577	854.6909	926.9696	989.3194	1063.1303	1064.2148	1075.1946	1230.7399	1265.8948	1387.1237	1398.4107	1465.8262	1472.5496	1747.1446	1849.9937	3058.3694	3123.4657	3139.1505	3173.5321	3506.797
CC(=O)OC=N	CC(=O)O[CH][NH]	
InChI=1S/C3H5NO2/c1-3(5)6-2-4/h2,4H,1H3	InChI=1S/C3H5NO2/c1-3(5)6-2-4/h2,4H,1H3
