12
gdb 4420	3.74171	2.11011	1.34922	3.2575	63.57	-0.2193	-0.06	0.1593	823.6715	0.084652	-414.680883	-414.674458	-414.673514	-414.711457	24.27	
O	 0.0751182784	 1.3192096596	 0.0071579231	-0.393045
C	-0.0345074942	-0.0107103875	 0.0011031509	 0.439918
C	-1.2035351177	-0.6885749056	 0.0040831085	-0.181944
N	-1.2070347521	-2.066484456	-0.0028112085	-0.209324
C	-0.0820907686	-2.6955541823	-0.0121073829	-0.035812
C	 1.2222101123	-2.044122799	-0.0159996905	 0.350972
N	 2.3343113577	-2.6467621023	-0.0250330734	-0.51563
O	 1.1585952212	-0.6365046549	-0.0085726204	-0.26441
H	 1.0137728346	 1.5490118946	 0.0031847023	 0.314449
H	-2.1495874344	-0.1668900728	 0.0118607748	 0.128048
H	-0.0698023071	-3.7810481298	-0.017584549	 0.139799
H	 3.1196377098	-1.9963735639	-0.0260530579	 0.226979
130.8233	200.6606	335.8124	348.5828	439.37	486.2017	518.524	570.9924	671.1992	732.1124	733.3799	815.8512	843.7421	896.9647	918.8125	1000.6642	1058.8818	1145.2889	1191.9485	1255.0263	1318.5582	1378.3068	1433.5956	1588.1054	1691.5326	1746.5024	3184.8271	3233.38	3498.5001	3789.7189
OC1=CN=CC(=N)O1	OC1=C[N]C=C([NH])O1	
InChI=1S/C4H4N2O2/c5-3-1-6-2-4(7)8-3/h1-2,5,7H	InChI=1S/C4H4N2O2/c5-3-1-6-2-4(7)8-3/h1-2,5,7H
