13
gdb 4890	5.03023	1.51941	1.20822	3.893	56.73	-0.2058	0.036	0.2418	937.4125	0.095282	-435.775534	-435.768069	-435.767125	-435.807833	26.165	
C	-0.0610185985	 1.3811573862	-0.0905655541	-0.257497
O	 0.4975501063	 0.0797192635	 0.1483947768	-0.264876
C	 0.8226173458	-0.6156073514	-0.9378712847	 0.420075
C	 0.5940413135	-1.8910650566	-1.272281826	-0.235688
N	 1.2847770404	-2.0925094174	-2.4813053413	-0.365604
C	 1.899240105	-0.9381377874	-2.8871910359	 0.492995
O	 2.55464173	-0.7009021789	-3.8636700817	-0.39817
O	 1.6087318562	-0.002982382	-1.8931273717	-0.247646
H	 0.6469790025	 2.0158210373	-0.6295093792	 0.153555
H	-0.9927245467	 1.2991236214	-0.6617653894	 0.129189
H	-0.2650574243	 1.8028775359	 0.8936568063	 0.143297
H	 0.0369381326	-2.6605656549	-0.7707539907	 0.152591
H	 1.3252122472	-2.9380266956	-3.0212061684	 0.277779
64.7471	141.2865	162.5006	193.3405	313.6692	410.2472	447.194	563.68	613.0817	653.5859	707.5132	760.3443	773.2258	925.5334	959.02	1041.3614	1071.4253	1135.673	1175.464	1207.0664	1312.7313	1348.9829	1400.6714	1479.3951	1487.018	1503.5945	1753.127	1906.974	3032.0735	3113.4774	3156.4606	3306.5108	3702.7832
COC1=CNC(=O)O1	COc1c[nH]c(=O)o1	
InChI=1S/C4H5NO3/c1-7-3-2-5-4(6)8-3/h2H,1H3,(H,5,6)	InChI=1S/C4H5NO3/c1-7-3-2-5-4(6)8-3/h2H,1H3,(H,5,6)
