15
gdb 1953	7.72364	1.5112	1.45166	3.6113	62.74	-0.2348	0.0245	0.2593	853.6152	0.125823	-304.686811	-304.679865	-304.678921	-304.71775	24.908	
C	-0.0209920114	 1.4959993261	 0.0411222196	-0.322298
N	-0.0295470209	 0.0523575147	 0.127444039	-0.067246
C	-1.2666160418	-0.6210822052	 0.5574967324	-0.173124
C	-0.3840600235	-1.670645508	 1.2960166466	-0.151083
C	 0.7379863595	-0.5942303015	 1.2052302223	-0.173124
C	-0.801718423	-2.1254719308	 2.6074379057	 0.267639
N	-1.135762344	-2.4804271883	 3.6559483323	-0.324956
H	 0.9857325053	 1.8444791752	-0.2114253426	 0.128034
H	-0.697772004	 1.8219292024	-0.7554024317	 0.128034
H	-0.3314551142	 1.988688912	 0.9815191625	 0.098381
H	-1.866983236	-0.0323925666	 1.2692765502	 0.107502
H	-1.9110748147	-0.9829185526	-0.2488943002	 0.119691
H	-0.1658512022	-2.5278908625	 0.6562436024	 0.135358
H	 1.7409643995	-0.9339982958	 0.9311644373	 0.119691
H	 0.7939530691	 0.0032508109	 2.1290867368	 0.107502
91.3798	171.0826	230.1844	260.5116	335.9501	350.4203	515.0565	555.727	602.0652	770.9951	897.4808	956.1698	984.8487	1009.4919	1064.3349	1096.1466	1127.5589	1149.0956	1201.5661	1230.5274	1232.3193	1239.7142	1302.6679	1338.5406	1362.4542	1452.5517	1486.2444	1499.2172	1504.9319	1531.1489	2357.7708	2934.779	2976.9359	2986.1146	3062.4604	3076.8718	3078.4854	3102.0411	3104.1512
CN1CC(C1)C#N	CN1CC(C1)C#N	
InChI=1S/C5H8N2/c1-7-3-5(2-6)4-7/h5H,3-4H2,1H3	InChI=1S/C5H8N2/c1-7-3-5(2-6)4-7/h5H,3-4H2,1H3
