15
gdb 3471	5.19766	2.51052	2.45803	0.8502	56.03	-0.2304	0.0688	0.2991	614.6541	0.126921	-345.619567	-345.61389	-345.612945	-345.648645	22.801	
O	-0.0275829373	 1.4031583994	 0.1255435697	-0.439874
C	 0.0350386432	 0.0011776078	 0.0213398846	 0.13598
C	-1.3772958351	-0.6190485014	-0.2106691476	-0.084135
C	-1.2129327216	-0.19972892	-1.7081411458	-0.239281
C	 0.2493168964	-0.59879723	-1.4036788939	 0.064482
O	 0.183478028	-2.0082169511	-1.1455533473	-0.281913
C	-0.9912010901	-2.0972243339	-0.2957607694	-0.083571
H	 0.8671431896	 1.7479430254	 0.0415260526	 0.287389
H	 0.6497605968	-0.4474624656	 0.8136759391	 0.067964
H	-2.2362851796	-0.3412749499	 0.398244917	 0.078885
H	-1.739385887	-0.7795130613	-2.4694668671	 0.096164
H	-1.3432886527	 0.870910398	-1.8519158719	 0.119572
H	 1.1022239287	-0.3770381582	-2.0449137124	 0.073939
H	-0.719304601	-2.5398256724	 0.6694201151	 0.101958
H	-1.7550650483	-2.7224023867	-0.7728544526	 0.102441
276.3336	309.3395	328.7288	353.4709	463.5639	544.4342	652.2406	824.9878	849.8732	892.4515	906.1169	937.5804	944.7906	980.0293	1003.1399	1038.2145	1073.8565	1101.5946	1128.3871	1141.6537	1176.1638	1211.5121	1232.6879	1262.9816	1269.6735	1275.2144	1321.0402	1360.8753	1418.3125	1481.3952	1528.631	3010.9955	3024.0588	3064.041	3080.881	3125.4999	3134.7677	3167.1087	3815.1123
OC1C2CC1OC2	O[C@H]1[C@H]2C[C@@H]1OC2	
InChI=1S/C5H8O2/c6-5-3-1-4(5)7-2-3/h3-6H,1-2H2	InChI=1S/C5H8O2/c6-5-3-1-4(5)7-2-3/h3-6H,1-2H2/t3-,4-,5-/m0/s1
