17
gdb 2543	3.4465	1.88323	1.32009	3.9073	61.17	-0.2432	-0.0154	0.2278	923.7441	0.145728	-346.861463	-346.852687	-346.851743	-346.895032	29.935	
C	 0.0372825195	 1.5560709479	 0.0019215759	-0.38714
C	-0.0248645967	 0.0292069323	-0.0945065431	-0.202271
C	 0.7857884664	-0.5476276472	-1.2783410471	-0.045189
C	 0.9307727863	-2.0622073675	-1.1677314443	-0.099564
O	 1.6664275935	-2.5021553537	-2.2981653991	-0.418989
C	 0.0823497059	-0.1977971581	-2.578203054	 0.183201
O	 0.3615732097	 0.7290752232	-3.2920226082	-0.25424
H	 1.0636899801	 1.89573045	 0.1746876798	 0.121904
H	-0.3139747123	 2.0307351082	-0.9186596471	 0.139578
H	-0.5804119607	 1.918112258	 0.8291477777	 0.114012
H	 0.3550420918	-0.4164797888	 0.8330910431	 0.103118
H	-1.0701568679	-0.2981365337	-0.180419067	 0.101879
H	 1.7797598454	-0.0881836999	-1.3049654578	 0.10304
H	 1.4399498217	-2.3167294755	-0.2257364784	 0.09439
H	-0.0697265661	-2.5261437518	-1.1356279555	 0.08888
H	 1.7102912169	-3.4627152858	-2.2823955847	 0.291207
H	-0.7850214835	-0.8624032676	-2.8118488403	 0.066183
68.9537	88.2353	121.3959	175.7487	222.7421	247.8052	289.4781	343.1245	385.2052	462.1869	549.3206	776.9407	863.8197	912.4015	974.8994	1006.4572	1022.722	1071.8058	1118.3763	1127.478	1169.2581	1242.2006	1245.3362	1273.5299	1310.0539	1354.0452	1368.3115	1419.4089	1428.6756	1453.6706	1488.0365	1498.6942	1506.3235	1521.4484	1837.6139	2835.1216	2960.591	2999.1	3013.9506	3040.6469	3047.4338	3066.5714	3107.9086	3118.7568	3831.3055
CCC(CO)C=O	CC[C@@H](CO)C=O	
InChI=1S/C5H10O2/c1-2-5(3-6)4-7/h3,5,7H,2,4H2,1H3	InChI=1S/C5H10O2/c1-2-5(3-6)4-7/h3,5,7H,2,4H2,1H3/t5-/m1/s1
