13
gdb 825	7.87938	1.89649	1.68418	0.9303	58.41	-0.2324	0.002	0.2344	719.4536	0.101956	-340.537496	-340.531385	-340.530441	-340.567299	22.984	
O	-0.1414023033	 1.3175641128	-0.0289352244	-0.393101
N	 0.0344565227	-0.0792165363	 0.0022053594	-0.25715
C	-1.0826220404	-0.6688183774	-0.0841039701	 0.439436
C	-2.5494414731	-0.2902202294	-0.0058231356	-0.259888
N	-2.9090426552	-1.7439557037	 0.2194058999	-0.120073
C	-2.4747078887	-2.4392820985	-0.9934116006	-0.233745
C	-1.4296959076	-2.105268276	 0.0124109921	-0.125636
H	 0.7614156975	 1.6375855776	 0.0724367064	 0.309264
H	-2.7784371374	 0.3127925752	 0.8762612233	 0.143164
H	-3.0212528764	 0.1562730857	-0.8862236742	 0.126225
H	-2.7967590008	-3.4756311285	-1.0326015278	 0.131727
H	-2.4954452854	-1.915589484	-1.9469913317	 0.122114
H	-0.9178797817	-2.8573333874	 0.6012728932	 0.117663
135.4348	207.7428	315.3298	402.2935	463.0453	482.7593	551.6081	700.419	740.917	794.2318	883.925	952.1783	971.0495	994.3671	1029.3113	1052.7255	1099.0636	1114.746	1175.1232	1195.7094	1230.4764	1261.065	1324.9695	1419.655	1473.8445	1501.8694	1794.9295	3057.9263	3103.5724	3116.1172	3187.7687	3200.6489	3818.5985
ON=C1CN2CC12	ON=C1CN2C[C@@H]12	
InChI=1S/C4H6N2O/c7-5-3-1-6-2-4(3)6/h4,7H,1-2H2	InChI=1S/C4H6N2O/c7-5-3-1-6-2-4(3)6/h4,7H,1-2H2/t4-,6?/m0/s1
