19
gdb 2943	5.70536	1.77367	1.47048	1.5051	67.58	-0.2373	0.087	0.3243	889.0251	0.172677	-310.936083	-310.92849	-310.927546	-310.968383	27.56	
C	-0.1077379638	 1.5492854804	-0.0183353702	-0.381545
C	-0.0049737982	 0.0219911811	-0.0076966074	-0.180563
C	 0.6986989385	-0.5401064469	-1.2389911623	 0.172851
C	 0.8190140213	-2.0694655584	-1.2824908359	-0.2388
C	 0.8451629461	-2.3489384835	-2.7908338592	-0.230637
C	-0.1210181961	-1.2803911969	-3.3180985671	-0.055659
O	-0.0343212903	-0.1772950035	-2.4185736276	-0.279053
H	 0.885705478	 2.0119101457	-0.0289478874	 0.109325
H	-0.6444482416	 1.8890573491	-0.9078407487	 0.135789
H	-0.6373024122	 1.9170956654	 0.8658392774	 0.10632
H	 0.5412470689	-0.3131477745	 0.883865334	 0.089702
H	-1.0073891473	-0.4209655926	 0.0476622638	 0.09464
H	 1.7050329993	-0.0913739454	-1.3083105972	 0.059914
H	 1.7025464335	-2.435664232	-0.7538540178	 0.100534
H	-0.0649781387	-2.5270985764	-0.822082668	 0.100293
H	 1.8515768508	-2.1853611332	-3.1910188987	 0.106007
H	 0.5387400853	-3.3640232694	-3.0551773837	 0.101129
H	 0.1288753927	-0.9376917064	-4.3288662637	 0.099223
H	-1.1545080862	-1.6582366226	-3.3381717504	 0.09053
44.6336	109.0755	178.6173	216.6908	260.8427	397.7009	447.6053	572.4246	658.4517	767.6356	839.3943	880.4805	893.9797	933.8745	935.2744	964.4097	1022.6171	1042.717	1057.7397	1120.7561	1139.9913	1177.6194	1194.0082	1212.2665	1255.7789	1295.8759	1303.394	1334.3324	1348.4155	1363.3966	1398.2594	1408.2862	1411.7637	1472.8662	1486.9896	1497.1988	1498.6961	1509.6641	1533.0342	2944.1418	2986.6003	3018.0188	3035.0552	3037.7744	3042.5077	3056.6306	3057.2886	3099.2156	3100.6539	3108.6977	3123.1814
CCC1CCCO1	CC[C@H]1CCCO1	
InChI=1S/C6H12O/c1-2-6-4-3-5-7-6/h6H,2-5H2,1H3	InChI=1S/C6H12O/c1-2-6-4-3-5-7-6/h6H,2-5H2,1H3/t6-/m0/s1
