14
gdb 4359	4.17317	1.83212	1.28323	1.1739	66.24	-0.2563	-0.0246	0.2317	899.3134	0.109262	-378.800302	-378.793489	-378.792545	-378.831578	25.189	
C	-0.0596841446	 1.5088905482	-0.0352318688	-0.467577
C	 0.0168254999	 0.009648212	 0.0315351423	 0.346028
N	 0.1490662409	-0.6388559989	-1.1445334526	-0.315832
C	 0.2161698535	-1.9608566786	-1.0798060321	 0.066483
N	 0.1679054387	-2.7247771223	 0.01612053	-0.352796
C	 0.0375327834	-2.0693658366	 1.1648100991	 0.450562
O	-0.0157657938	-2.7915988191	 2.2940679242	-0.407816
C	-0.0445433227	-0.676852755	 1.2349604822	-0.269985
H	 0.8411178686	 1.9082913155	-0.5117499917	 0.147435
H	-0.9079563076	 1.8126401715	-0.6566660826	 0.147433
H	-0.166179318	 1.9564590234	 0.9552891547	 0.122756
H	 0.322820549	-2.4910731102	-2.0236752217	 0.118914
H	 0.0571946569	-3.7188768312	 2.0246032146	 0.302516
H	-0.150456294	-0.1746784889	 2.1879681424	 0.111878
76.4724	184.5608	227.17	308.1241	452.3783	462.3649	550.2052	560.6096	573.301	645.8526	801.5368	821.3447	882.0156	967.6653	998.59	1000.3707	1030.062	1062.4844	1169.6868	1201.8809	1282.7668	1334.7744	1371.0341	1406.4394	1453.5195	1473.2096	1484.4257	1508.3713	1607.6705	1652.5141	3044.6005	3106.3278	3132.603	3159.3663	3213.1231	3753.2391
CC1=NC=NC(O)=C1	Cc1ncnc(O)c1	
InChI=1S/C5H6N2O/c1-4-2-5(8)7-3-6-4/h2-3H,1H3,(H,6,7,8)	InChI=1S/C5H6N2O/c1-4-2-5(8)7-3-6-4/h2-3H,1H3,(H,6,7,8)
