13
gdb 3685	7.25846	2.1488	1.67799	2.2278	55.81	-0.2076	0.0262	0.2339	716.5243	0.104136	-336.855265	-336.848528	-336.847584	-336.886426	24.04	
C	 0.0164376963	 1.4704131864	 0.0293150254	-0.494192
C	 0.009307411	-0.0183311079	-0.0495510126	 0.370732
N	 0.1678008818	-0.7504698484	-1.141858686	-0.357375
C	 0.0876729051	-2.0291133289	-0.6696355469	 0.386952
N	 0.2661989241	-3.1196397023	-1.4984692016	-0.582255
N	-0.1166176171	-2.1430421515	 0.6363282669	-0.301973
N	-0.1578776524	-0.8281415938	 1.0112010715	-0.237349
H	 0.9951086392	 1.8667750316	-0.2580568548	 0.155142
H	-0.7227266507	 1.8918305382	-0.6576461857	 0.154951
H	-0.2123096	 1.8170590854	 1.0406275055	 0.123118
H	 0.0087739401	-2.9301483583	-2.4558575496	 0.256121
H	-0.1449011399	-3.969992663	-1.141973323	 0.254797
H	-0.3026000276	-0.5902870173	 1.9776777308	 0.271332
35.2113	206.0824	275.8039	317.1343	360.9663	458.6218	478.5613	616.6326	648.5355	686.9213	773.6537	801.0199	994.2875	1030.2975	1058.1161	1075.6213	1100.8147	1182.6927	1295.8762	1406.2478	1428.4633	1465.27	1471.2109	1513.778	1573.7183	1597.7934	1648.5411	3046.6628	3110.7459	3124.8844	3572.8638	3674.4426	3678.8031
CC1=NC(N)=NN1	Cc1nc(N)n[nH]1	
InChI=1S/C3H6N4/c1-2-5-3(4)7-6-2/h1H3,(H3,4,5,6,7)	InChI=1S/C3H6N4/c1-2-5-3(4)7-6-2/h1H3,(H3,4,5,6,7)
