11
gdb 4750	7.24366	1.34436	1.13392	2.8455	58.67	-0.2435	-0.0806	0.163	937.7311	0.072361	-434.572854	-434.566354	-434.56541	-434.603695	23.308	
O	 0.1040912361	 1.3297033399	-0.0547274679	-0.42246
C	 0.0661127761	-0.0107761137	-0.0614433778	 0.32967
C	-0.028895471	-0.839776563	-1.1456575933	-0.123354
O	-0.0335458728	-2.1167578976	-0.6756486255	-0.137843
C	 0.05842703	-1.9991422857	 0.6632626648	 0.299389
C	 0.0808746687	-3.1973638003	 1.5089608988	 0.084965
O	 0.0217272913	-4.3293721198	 1.0939042181	-0.256534
N	 0.1208085545	-0.758303635	 1.0805102663	-0.361999
H	 0.1729478165	 1.6096241549	 0.8665086167	 0.314054
H	-0.095302793	-0.6970379299	-2.2088217243	 0.166118
H	 0.1592183336	-2.9464349698	 2.5851214241	 0.107994
113.7757	184.4155	269.9936	355.7692	378.8855	387.1824	523.6639	675.9145	709.5003	716.0697	755.4708	789.491	984.4559	1023.1092	1037.0149	1143.3491	1184.7054	1268.4438	1371.1444	1394.25	1416.0706	1552.0378	1667.5731	1799.1027	2947.0776	3310.246	3804.2545
OC1=COC(C=O)=N1	Oc1coc(C=O)n1	
InChI=1S/C4H3NO3/c6-1-4-5-3(7)2-8-4/h1-2,7H	InChI=1S/C4H3NO3/c6-1-4-5-3(7)2-8-4/h1-2,7H
