16
gdb 4049	4.5488	1.3829	1.07704	2.8045	75.27	-0.1832	-0.0079	0.1752	1066.8758	0.13065	-379.900911	-379.892938	-379.891994	-379.933077	29.551	
C	-0.0235720526	 1.4876032845	 0.0718611609	-0.491713
C	-0.0132511633	 0.0014644297	-0.0626979636	 0.369203
C	 0.0288794807	-0.7447959619	-1.1938193747	-0.325256
C	 0.0367473322	-2.1431437425	-0.8158194202	 0.398438
C	 0.098278966	-2.1877993529	 0.7059561701	-0.246617
N	-0.1100524202	-0.7804254347	 1.0832422023	-0.355386
N	-0.0129775238	-3.2227778122	-1.5036522396	-0.269119
O	-0.0699033429	-2.9259609866	-2.8861338546	-0.404294
H	 0.8298203391	 1.835909127	 0.6677271217	 0.129955
H	 0.0269979423	 1.9671982978	-0.9068534746	 0.142799
H	-0.9319801793	 1.8251727482	 0.5834247557	 0.144102
H	-0.0014754435	-0.3765967704	-2.2055384344	 0.112481
H	-0.6701630912	-2.8367943755	 1.1353878659	 0.134121
H	 1.0767400385	-2.5490841193	 1.048180529	 0.125132
H	 0.3718318697	-0.4503265633	 1.9072976173	 0.236413
H	-0.1139552618	-3.8052119779	-3.274232721	 0.29974
115.7711	153.2018	189.8841	211.8079	251.6098	348.3771	355.7961	494.2956	516.2902	554.2753	612.8108	656.9172	723.4095	790.4111	896.8958	961.2407	968.6017	999.6711	1010.9384	1058.8683	1072.1931	1181.3473	1194.3717	1231.7674	1293.5687	1349.3385	1395.2405	1415.712	1453.7912	1476.9707	1486.7307	1503.2988	1656.094	1725.545	3020.6254	3025.9599	3078.1948	3080.8774	3139.0998	3276.1674	3590.9965	3829.7624
CC1=CC(CN1)=NO	CC1=CC(=NO)CN1	
InChI=1S/C5H8N2O/c1-4-2-5(7-8)3-6-4/h2,6,8H,3H2,1H3	InChI=1S/C5H8N2O/c1-4-2-5(7-8)3-6-4/h2,6,8H,3H2,1H3
