17
gdb 3197	3.87658	3.32547	2.90946	1.6003	62.33	-0.2355	0.0828	0.3182	596.6758	0.15244	-309.733696	-309.728286	-309.727342	-309.76258	22.267	
C	-0.0219941603	 1.5688690238	 0.0024758392	-0.210049
C	 1.4906159022	 1.9688546001	-0.0240256852	-0.208741
C	 2.1810200648	 0.5911104417	-0.0357903564	 0.12002
C	 1.2407221377	-0.2549955863	-0.9056679445	-0.226264
C	 0.0381029582	 0.0215814644	 0.0223896321	-0.034436
C	 0.6527439998	-0.4035196612	 1.3662525532	-0.066646
O	 2.0314746469	 0.0037389193	 1.2668798919	-0.281937
H	-0.5488403431	 1.968796523	 0.8735665547	 0.098052
H	-0.545961326	 1.9254061266	-0.8893260914	 0.095363
H	 1.7451384971	 2.554593047	-0.9130410795	 0.093492
H	 1.7955397895	 2.5395721777	 0.8558406956	 0.10659
H	 3.2428959725	 0.5952256828	-0.2846218696	 0.069842
H	 1.1077636158	 0.1352937538	-1.9183856873	 0.094555
H	 1.5363553083	-1.3061948331	-0.948968373	 0.100685
H	-0.9012477291	-0.4797200103	-0.2148685441	 0.063725
H	 0.1806129367	 0.0921060822	 2.2240494118	 0.093401
H	 0.604908119	-1.4893408615	 1.5258611227	 0.092348
182.3559	349.5775	412.9104	464.845	582.6664	767.9843	783.1772	820.5091	835.9855	880.5954	902.5505	944.1142	948.5657	962.5147	966.677	977.5623	1027.1469	1057.6926	1095.891	1139.6065	1161.734	1184.376	1215.9225	1245.1421	1263.7116	1282.1506	1312.8543	1319.096	1335.0251	1346.6255	1386.5239	1479.2252	1488.8653	1505.6747	1530.3322	3002.8084	3040.2263	3047.3679	3056.7284	3063.1443	3088.5524	3107.185	3113.0623	3115.0819	3119.0556
C1CC2CC1CO2	C1C[C@@H]2C[C@H]1CO2	
InChI=1S/C6H10O/c1-2-6-3-5(1)4-7-6/h5-6H,1-4H2	InChI=1S/C6H10O/c1-2-6-3-5(1)4-7-6/h5-6H,1-4H2/t5-,6+/m0/s1
