11
gdb 2608	11.64807	1.01682	0.94056	0.6662	72.49	-0.248	-0.0186	0.2294	1133.1349	0.075448	-268.888303	-268.880847	-268.879903	-268.919805	26.366	
C	-0.0961451121	-1.2318533471	-0.0036059714	-0.434504
C	-0.0348598412	-0.0333633323	 0.0022695322	 0.315558
C	 0.025409672	 1.4294687144	 0.0095262354	-0.525178
C	 1.3881728051	 1.9565241834	-0.0006627708	 0.437023
C	 2.5114586091	 2.4024934094	-0.0089955147	-0.285775
C	 3.776477876	 2.9043433156	-0.0183739559	 0.297652
C	 4.8982592953	 3.3504294042	-0.0266860647	-0.544501
H	-0.1447353852	-2.2926930314	-0.0088893652	 0.205513
H	-0.5222040718	 1.822599579	-0.8587194388	 0.170411
H	-0.5054889994	 1.8132218659	 0.8922280436	 0.17041
H	 5.8852575722	 3.7415633589	-0.0340083698	 0.193391
74.4115	141.5538	191.6903	315.0743	340.0204	341.6208	488.4735	539.8623	542.429	594.7291	600.8228	629.6716	656.0847	744.8866	930.9734	946.2317	1173.6196	1227.9617	1334.4916	1446.6147	2186.1356	2249.7565	2373.641	3005.4625	3030.439	3504.9592	3506.2135
C#CCC#CC#C	C#CCC#CC#C	
InChI=1S/C7H4/c1-3-5-7-6-4-2/h1-2H,5H2	InChI=1S/C7H4/c1-3-5-7-6-4-2/h1-2H,5H2
