13
gdb 580	10.19911	1.95836	1.83171	2.6802	50.56	-0.2489	-0.0268	0.2221	666.334	0.107552	-286.466852	-286.460524	-286.45958	-286.497584	21.436	
O	 0.3269226709	-0.1268871614	-0.2111202864	-0.234213
C	 0.1243682811	 1.0583414483	-0.2556409261	 0.169031
C	 1.1554038759	 2.1210505941	 0.0723855847	-0.310131
C	 1.3093286466	 3.1222333325	-1.0568218622	 0.02354
C	 2.6245486316	 3.7514413493	-1.3263870031	-0.242139
N	 2.0651132372	 2.7636396491	-2.2664863249	-0.307613
H	-0.8706955814	 1.4608807833	-0.557014618	 0.07826
H	 0.8158461169	 2.6465763705	 0.9773234108	 0.127611
H	 2.1044611691	 1.6259759676	 0.3022737909	 0.11817
H	 0.4123504734	 3.7007398423	-1.2724788891	 0.100348
H	 2.6772349558	 4.7676126578	-1.7064904306	 0.125085
H	 3.4621493429	 3.4595594186	-0.6977716432	 0.115711
H	 2.5220800899	 1.863546978	-2.1351736228	 0.23634
49.8091	107.3875	212.3963	378.4245	418.1875	504.4691	741.6751	825.8156	851.6496	939.4037	951.8629	1000.6035	1028.5932	1092.3851	1130.8313	1158.8524	1185.0423	1241.3836	1260.0043	1291.6448	1310.5207	1422.905	1428.6989	1452.9474	1513.6114	1837.4435	2864.2351	3008.6922	3086.3773	3108.8823	3120.8458	3194.3239	3489.868
O=CCC1CN1	O=CC[C@H]1CN1	
InChI=1S/C4H7NO/c6-2-1-4-3-5-4/h2,4-5H,1,3H2	InChI=1S/C4H7NO/c6-2-1-4-3-5-4/h2,4-5H,1,3H2/t4-/m0/s1
