14
gdb 815	6.62487	1.97278	1.54898	1.3282	64.84	-0.2178	-0.0249	0.1929	764.0667	0.114241	-324.555069	-324.548544	-324.5476	-324.585842	23.956	
O	-0.1007822459	 1.354699489	 0.0087553161	-0.399237
N	 0.0332231966	-0.0482031049	 0.0039222951	-0.238158
C	-1.1071674454	-0.6258203878	 0.0111886255	 0.382426
C	-1.2329805462	-2.1425524175	 0.0080822409	-0.295122
C	-2.7636656412	-2.4046811672	 0.0188435447	-0.266795
C	-3.371880506	-1.0245561944	 0.0274317801	-0.062882
C	-2.4517545035	-0.0511305136	 0.0231220781	-0.137377
H	 0.8176342036	 1.6426847976	 0.0024259505	 0.304311
H	-0.7501438651	-2.5704933109	-0.8745541061	 0.127121
H	-0.7370849684	-2.5751085909	 0.8811831007	 0.127125
H	-3.0931580419	-2.9787528766	-0.8558655206	 0.116775
H	-3.0799878212	-2.9838977656	 0.8950166185	 0.116767
H	-4.4447919627	-0.865466144	 0.0360930543	 0.105149
H	-2.6349673127	 1.0134681168	 0.027506362	 0.119896
54.0212	241.4772	251.6747	292.6823	397.1027	492.6354	576.5297	697.7166	771.6424	786.4833	827.8747	861.634	924.4048	961.6766	990.635	1013.1071	1030.0167	1119.6811	1162.8444	1236.2703	1236.6869	1270.9311	1325.4279	1370.0156	1402.531	1468.4637	1490.5777	1649.7589	1726.8088	3027.4625	3050.2752	3065.9067	3102.8959	3192.6683	3249.5555	3825.8892
ON=C1CCC=C1	ON=C1CCC=C1	
InChI=1S/C5H7NO/c7-6-5-3-1-2-4-5/h1,3,7H,2,4H2	InChI=1S/C5H7NO/c7-6-5-3-1-2-4-5/h1,3,7H,2,4H2
