14
gdb 3680	3.63878	3.24223	1.75178	3.228	58.85	-0.2498	0.0001	0.2499	704.7065	0.113283	-324.586663	-324.579808	-324.578864	-324.617459	24.335	
C	 0.0233838714	 1.5276725992	 0.0069036241	-0.509597
C	 0.0056272585	 0.0324112709	-0.0047358236	 0.08395
C	-0.0318148846	-0.819840051	-1.060216307	-0.000094
O	-0.0358849126	-2.0974740264	-0.65059599	-0.170776
N	-0.0000642539	-2.1167017946	 0.7406671004	-0.199693
C	 0.0245158988	-0.8601740754	 1.117594657	 0.32439
C	 0.0665815201	-0.508297497	 2.5696157911	-0.496207
H	 0.9231888343	 1.9166039383	 0.4971039068	 0.134565
H	-0.0004852785	 1.9301173542	-1.0091018412	 0.13133
H	-0.8382110609	 1.9370384737	 0.5465973253	 0.134535
H	-0.0579628692	-0.6675816835	-2.1287808353	 0.144461
H	 0.9637340642	 0.0735994133	 2.8073699116	 0.135622
H	-0.7995783234	 0.0999545715	 2.8520283046	 0.135518
H	 0.0684915158	-1.4156551831	 3.1761706862	 0.151995
116.9727	138.7143	221.9735	248.0317	300.4544	404.057	613.8668	624.4143	683.6245	709.4762	836.8808	907.5999	944.9108	1012.621	1032.9015	1054.2775	1079.1807	1154.1226	1207.2133	1297.1708	1400.1668	1423.7223	1431.2538	1474.3521	1479.284	1485.8462	1502.2044	1528.7621	1661.752	3029.5757	3037.7233	3079.1504	3091.0452	3114.8282	3140.2568	3257.3211
CC1=CON=C1C	Cc1conc1C	
InChI=1S/C5H7NO/c1-4-3-7-6-5(4)2/h3H,1-2H3	InChI=1S/C5H7NO/c1-4-3-7-6-5(4)2/h3H,1-2H3
