13
gdb 2614	11.62817	1.05724	0.98101	1.3985	63.07	-0.2612	0.0115	0.2727	1107.8038	0.097853	-307.223588	-307.215582	-307.214638	-307.256147	27.448	
C	-0.0392065769	-1.1905652773	-0.004024019	-0.408633
C	 0.0105800394	 0.008894663	 0.0019023723	 0.284976
C	 0.032824119	 1.4641669114	 0.0095353381	-0.200646
O	 1.3722816811	 1.9253373319	-0.0007483616	-0.240019
C	 1.4342266711	 3.3406168084	 0.006223974	-0.200656
C	 2.8232903915	 3.7750582706	-0.0046678722	 0.285013
C	 3.9591829413	 4.163477884	-0.0134035855	-0.408646
H	-0.0737423765	-2.2519551553	-0.0093202183	 0.202806
H	-0.5144421877	 1.8497016298	-0.8682440935	 0.120748
H	-0.4975707327	 1.8401662508	 0.9016904203	 0.120752
H	 0.9077408103	 3.753900824	-0.8716391154	 0.12075
H	 0.9245787325	 3.7444461103	 0.8983091052	 0.12075
H	 4.9668871275	 4.4984965584	-0.0212147543	 0.202804
85.6674	87.808	97.9212	206.4026	330.5357	333.2342	342.674	453.845	592.7153	610.2535	610.8596	678.9774	679.0442	944.2007	1011.7992	1013.1601	1024.2824	1050.106	1130.9784	1245.4466	1257.5638	1373.1619	1441.0286	1491.7874	1509.5472	2249.4885	2250.7673	2946.0803	2954.3905	2965.3914	2971.6532	3505.7327	3505.9671
C#CCOCC#C	C#CCOCC#C	
InChI=1S/C6H6O/c1-3-5-7-6-4-2/h1-2H,5-6H2	InChI=1S/C6H6O/c1-3-5-7-6-4-2/h1-2H,5-6H2
