17
gdb 2302	5.43273	1.3998	1.21945	0.1951	74.15	-0.2247	0.0573	0.282	1027.7749	0.146878	-272.554773	-272.546341	-272.545397	-272.588942	29.255	
C	 0.0750071249	 1.5117121499	 0.0414737957	-0.497533
C	 0.0394705995	 0.0560537915	 0.04095773	 0.042472
C	 0.0151123059	-1.1494005174	 0.0433400342	 0.097823
C	 0.0005167034	-2.5840071037	 0.0311516593	-0.183794
C	-0.4802904012	-3.3639639876	 1.2491403483	-0.28762
C	-1.3104103428	-3.3661801887	-0.0016581536	 0.017251
C	-2.6423739841	-2.6561183946	-0.0534711048	-0.405311
H	 1.0587502485	 1.8832412446	-0.2671597993	 0.14639
H	-0.6664471017	 1.9341115226	-0.6463671579	 0.144108
H	-0.1303788574	 1.9175046476	 1.0386540941	 0.144319
H	 0.8226846145	-3.0374409349	-0.5159530161	 0.103475
H	 0.0696684378	-4.2576091731	 1.5229753111	 0.112253
H	-0.837858147	-2.7778633052	 2.0886684991	 0.120019
H	-1.2614098907	-4.2768246622	-0.59314634	 0.086708
H	-2.6109478571	-1.7216654432	 0.5133257948	 0.127374
H	-2.91893221	-2.40810116	-1.0839092452	 0.118415
H	-3.4357737525	-3.2841871855	 0.3663266303	 0.113651
15.7618	96.8981	124.4876	195.787	241.5736	291.0749	357.1007	381.913	498.5796	563.3613	702.0448	764.0838	850.7967	883.1096	931.4223	986.6822	1050.4489	1053.7841	1065.5474	1067.4667	1104.2524	1143.8345	1182.0381	1199.785	1244.4555	1379.6845	1403.4978	1415.8386	1423.5535	1477.93	1480.3897	1483.6355	1492.9432	1501.2429	2364.7977	3021.9279	3031.9322	3079.6676	3082.2352	3091.6025	3111.8495	3132.6754	3133.6774	3143.9511	3222.592
CC#CC1CC1C	CC#C[C@H]1C[C@H]1C	
InChI=1S/C7H10/c1-3-4-7-5-6(7)2/h6-7H,5H2,1-2H3	InChI=1S/C7H10/c1-3-4-7-5-6(7)2/h6-7H,5H2,1-2H3/t6-,7+/m1/s1
