11
gdb 2828	4.56491	2.0934	1.65777	3.2825	49.	-0.2667	-0.0725	0.1942	713.1821	0.075524	-380.371074	-380.364309	-380.363364	-380.402434	22.455	
O	-0.4392926397	 0.429430053	 0.4976882587	-0.23781
C	 0.2499742065	 0.8193876037	-0.4099018645	 0.132579
C	 1.3748098765	 1.7892716606	-0.187851243	-0.04479
O	 2.4136938228	 1.7832802941	-1.1560134583	-0.207805
C	 1.6126709026	 2.9469904277	-1.1077085813	-0.028513
C	 0.7150076762	 3.2312473202	-2.2816776897	 0.144497
O	 0.3724207029	 2.4107465465	-3.0914837234	-0.238023
H	 0.1233846295	 0.4930063515	-1.4585386752	 0.130841
H	 1.6799602541	 1.9078333156	 0.851456843	 0.129705
H	 2.0857453177	 3.8256816123	-0.6662320848	 0.122907
H	 0.3843186209	 4.2909192646	-2.3422394414	 0.096413
79.1257	112.889	219.987	234.7029	334.5485	376.9937	502.2917	755.5183	786.4208	878.8719	934.4212	952.0035	1034.2424	1071.344	1117.3349	1147.7069	1254.3211	1327.2764	1390.9649	1422.1073	1446.0304	1820.8527	1831.7454	2900.2349	2980.1686	3106.4641	3132.7951
O=CC1OC1C=O	O=C[C@H]1O[C@H]1C=O	
InChI=1S/C4H4O3/c5-1-3-4(2-6)7-3/h1-4H	InChI=1S/C4H4O3/c5-1-3-4(2-6)7-3/h1-4H/t3-,4+
