12
gdb 2673	20.45613	0.83079	0.80639	4.9516	64.25	-0.2863	-0.0404	0.2459	1286.7502	0.08936	-323.359825	-323.352178	-323.351234	-323.392057	25.367	
O	-0.0997750844	 1.4455667411	 0.0108305959	-0.409381
C	 0.0460462778	 0.0396854132	 0.0018180263	-0.068086
C	-1.3781523449	-0.5365138541	 0.012311526	-0.344305
C	-1.3982961205	-1.9870228909	 0.0045579761	 0.079452
C	-1.396527563	-3.195248476	-0.0020588181	 0.03428
C	-1.3969159289	-4.5602846491	-0.0094373092	 0.209214
N	-1.3951362312	-5.7220772604	-0.0155630033	-0.337233
H	 0.7755791118	 1.8436951889	 0.0050321384	 0.296186
H	 0.5769989925	-0.315093739	-0.8935314344	 0.109941
H	 0.5939959222	-0.3247333738	 0.8829399328	 0.109943
H	-1.9025211612	-0.1602598664	 0.8990247721	 0.159993
H	-1.9193748002	-0.1506267936	-0.8600193726	 0.159998
79.7651	81.1385	164.9465	220.9257	233.369	361.9775	378.7598	472.7546	581.7795	586.5519	750.8228	791.842	994.2151	1083.6876	1088.7487	1174.2962	1220.7837	1239.8694	1303.3613	1328.7801	1456.5381	1467.1839	1529.1624	2267.5228	2403.6757	2990.1392	3023.2466	3036.7686	3077.046	3834.7963
OCCC#CC#N	OCCC#CC#N	
InChI=1S/C5H5NO/c6-4-2-1-3-5-7/h7H,3,5H2	InChI=1S/C5H5NO/c6-4-2-1-3-5-7/h7H,3,5H2
