15
gdb 3531	7.39616	2.39056	2.31828	1.4135	60.86	-0.2147	0.068	0.2828	624.8847	0.126111	-304.567859	-304.56226	-304.561316	-304.59684	22.289	
C	 0.0370947284	 1.5335668882	-0.1678895876	-0.322919
N	 0.0290424216	 0.0789051186	-0.0441030428	-0.11951
C	-1.1193206111	-0.4987205222	 0.7159414652	-0.029315
C	-0.2603941502	-1.7148827762	 1.1853784696	-0.029986
N	-0.567965633	-1.5816306944	 2.6449617002	-0.347052
C	-0.547966877	-0.1668752626	 2.1521221918	-0.044865
C	 0.6612432911	-0.4661637623	 1.1938458477	 0.002769
H	 1.0346945859	 1.8631530987	-0.4764244976	 0.121264
H	-0.6682724203	 1.8318133571	-0.9505115695	 0.119894
H	-0.2302549223	 2.0714233635	 0.7576148262	 0.095333
H	-2.1516583891	-0.4792201274	 0.3581934915	 0.078768
H	-0.0959373276	-2.6631614573	 0.6750033541	 0.090789
H	-1.5313308385	-1.8749500844	 2.8285691039	 0.208126
H	-0.7314136272	 0.6825343361	 2.8102544335	 0.086656
H	 1.7287551791	-0.4140949855	 1.4087991537	 0.090048
222.4225	238.976	299.085	501.0848	551.5199	737.1778	744.0872	787.8927	809.2801	836.265	897.371	899.9411	916.0918	974.2611	1041.042	1094.5365	1099.1939	1104.9724	1143.528	1154.7211	1161.4904	1166.4518	1195.3753	1200.33	1224.7062	1294.3295	1301.3743	1345.7514	1449.4362	1492.871	1497.8287	2961.7222	3062.6217	3086.8824	3098.6936	3111.0984	3119.6582	3133.6262	3398.6336
CN1C2C3NC2C13	CN1[C@H]2[C@@H]3N[C@H]2[C@H]13	
InChI=1S/C5H8N2/c1-7-4-2-5(7)3(4)6-2/h2-6H,1H3	InChI=1S/C5H8N2/c1-7-4-2-5(7)3(4)6-2/h2-6H,1H3/t2-,3+,4-,5+
