10
gdb 829	5.28606	2.80689	2.77246	2.7647	32.38	-0.2571	0.0697	0.3268	506.0529	0.070118	-432.85289	-432.846825	-432.845881	-432.882725	20.798	
N	-0.0417969391	 1.4895271991	 0.0247149295	-0.508548
C	-0.0239476696	 0.0350421683	 0.0033752986	-0.276739
C	 0.8222051441	-0.4886174803	 1.1520757557	 0.299265
F	 0.3240642857	-0.1672137806	 2.3478188939	-0.067633
F	 0.9133641452	-1.8273186516	 1.0924000011	-0.081754
F	 2.0728699148	 0.005171435	 1.0871044264	-0.093376
H	 0.8714336193	 1.8516456429	-0.2287072003	 0.24061
H	-0.7037942541	 1.8401621924	-0.657661039	 0.240375
H	-1.0389081325	-0.3445066527	 0.1526220149	 0.136364
H	 0.3744327161	-0.4283923625	-0.9134225308	 0.111437
113.2147	204.339	239.8294	359.0324	419.0215	536.9598	548.5266	638.4619	813.6329	846.8872	971.1305	1085.8263	1120.2165	1194.3982	1267.3039	1284.2565	1343.2848	1452.5655	1492.2106	1657.4769	2980.5525	3094.9819	3515.8543	3598.2412
NCC(F)(F)F	NCC(F)(F)F	
InChI=1S/C2H4F3N/c3-2(4,5)1-6/h1,6H2	InChI=1S/C2H4F3N/c3-2(4,5)1-6/h1,6H2
