13
gdb 1049	7.53035	2.17416	1.70529	1.0339	56.25	-0.1935	0.0365	0.23	704.1997	0.102091	-344.468531	-344.462063	-344.461119	-344.500052	22.803	
C	-0.1127834313	 1.4157480179	 0.0113175503	-0.244429
O	-0.0150196136	-0.0066208988	 0.001760258	-0.26703
C	-1.1579318188	-0.6994079034	 0.0104842133	 0.45826
C	-1.3693036586	-2.0439360102	 0.0096472489	-0.320289
C	-2.7974504208	-2.198704948	 0.0210232371	-0.157878
C	-3.3319173951	-0.9543403883	 0.0276279295	-0.035969
O	-2.3242462641	-0.0138920832	 0.0213158811	-0.188066
H	 0.9143655274	 1.7814344395	 0.003358387	 0.137671
H	-0.645208107	 1.7827767179	-0.8721876672	 0.134611
H	-0.6275905709	 1.7719805435	 0.9095810853	 0.134513
H	-0.6126270555	-2.8097211863	 0.0020978173	 0.108995
H	-3.3464193188	-3.1275986322	 0.0238242026	 0.109597
H	-4.331887923	-0.5576949784	 0.0367014069	 0.130013
21.4111	170.7087	242.1957	295.743	499.3698	607.2283	644.0715	670.8454	701.0119	760.0606	839.6569	895.833	949.1631	1024.7202	1056.3022	1100.9947	1171.4789	1176.3505	1203.2623	1253.1578	1305.5613	1419.1598	1479.7202	1484.9331	1502.5388	1565.2996	1659.4773	3032.0469	3098.6141	3149.4989	3253.4315	3279.7424	3299.3277
COC1=CC=CO1	COc1ccco1	
InChI=1S/C5H6O2/c1-6-5-3-2-4-7-5/h2-4H,1H3	InChI=1S/C5H6O2/c1-6-5-3-2-4-7-5/h2-4H,1H3
