12
gdb 978	3.80501	3.40231	1.80937	0.8686	52.74	-0.1809	0.0344	0.2153	645.8036	0.090579	-360.52561	-360.519011	-360.518067	-360.555895	24.081	
N	 0.1488651603	 1.3834772331	-0.1543783597	-0.599592
C	-0.0036997532	 0.0047341572	-0.0597439743	 0.305829
C	-1.1036346501	-0.8011381268	-0.0231713022	 0.167092
O	-2.3951652946	-0.3394769562	 0.0767096769	-0.454942
C	-0.6193220125	-2.1537781889	-0.0167181584	-0.276353
C	 0.7331047166	-2.0631416405	-0.0411903352	-0.019149
O	 1.1233418937	-0.7488259714	-0.0696817747	-0.168652
H	 0.786344404	 1.756979858	 0.5411488332	 0.251922
H	-0.753512924	 1.834733556	-0.0633738362	 0.257875
H	-2.9148712853	-0.7076957083	-0.6453478781	 0.297665
H	-1.2079319669	-3.0574190446	 0.0192678126	 0.10731
H	 1.532577872	-2.7835136976	-0.0359886039	 0.130996
120.6797	227.6182	261.4591	274.1963	314.9392	476.0262	612.5799	645.0988	654.6301	688.2216	752.4107	802.7097	812.4033	903.8521	1039.4287	1061.9713	1158.1751	1183.4307	1272.3927	1315.7326	1338.6577	1471.6245	1556.9538	1631.6647	1713.1279	3252.1577	3293.6193	3510.3946	3611.6743	3801.8428
NC1=C(O)C=CO1	Nc1c(O)cco1	
InChI=1S/C4H5NO2/c5-4-3(6)1-2-7-4/h1-2,6H,5H2	InChI=1S/C4H5NO2/c5-4-3(6)1-2-7-4/h1-2,6H,5H2
