17
gdb 3030	10.0161	1.08177	1.04989	0.8334	70.36	-0.256	0.0595	0.3155	1120.0654	0.147281	-272.539126	-272.53132	-272.530376	-272.57135	28.521	
C	-0.0240413298	-1.1946498123	 0.0142539208	-0.440449
C	-0.0009017466	 0.0045276185	 0.096478396	 0.29256
C	 0.0647397946	 1.4578060961	 0.1850297386	-0.345055
C	 1.4358241108	 2.0281889517	-0.2405231543	-0.19894
C	 1.485725011	 3.5369546127	-0.1457741177	 0.035143
C	 1.7989824129	 4.2082917351	 1.1697835326	-0.256326
C	 2.8005369807	 4.2483229268	 0.0410602992	-0.28113
H	-0.0586849141	-2.2534335267	-0.0545153833	 0.1918
H	-0.7215774571	 1.8979982356	-0.4424129715	 0.126991
H	-0.1553063387	 1.7760193675	 1.2120027895	 0.13209
H	 2.2153144851	 1.5906663722	 0.3942523442	 0.105393
H	 1.6529231564	 1.7036361148	-1.2651237138	 0.110002
H	 0.7582550521	 4.0481518968	-0.7727225321	 0.081267
H	 1.2737792505	 5.1215238426	 1.4265981355	 0.111434
H	 2.0240539384	 3.5726984878	 2.0205367275	 0.111145
H	 3.6944937443	 3.6405207614	 0.136181956	 0.112288
H	 2.9576185995	 5.1885134792	-0.4758382871	 0.111785
71.1467	104.3295	122.264	236.875	331.9986	362.4286	415.436	508.7356	615.3098	634.5244	760.1097	777.6148	822.5213	836.4914	906.0709	950.5285	975.6577	1029.9302	1042.1537	1058.6464	1079.5893	1137.9277	1145.44	1198.6576	1227.2234	1239.4277	1282.5966	1315.6498	1365.4291	1417.1243	1468.4475	1473.3749	1492.5745	1507.5661	2237.9489	3017.5514	3033.1029	3045.8616	3074.8174	3127.7015	3128.442	3133.9216	3206.254	3221.4515	3507.9684
C#CCCC1CC1	C#CCCC1CC1	
InChI=1S/C7H10/c1-2-3-4-7-5-6-7/h1,7H,3-6H2	InChI=1S/C7H10/c1-2-3-4-7-5-6-7/h1,7H,3-6H2
