15
gdb 2582	3.28737	2.63413	1.8067	2.8417	52.88	-0.2554	0.0582	0.3136	726.7973	0.124372	-382.755486	-382.74811	-382.747166	-382.786944	26.749	
O	 0.2738867723	 1.2672688424	 0.2696188033	-0.427655
C	 0.0980881202	-0.0807329726	-0.1137078355	-0.107105
C	-1.3548749558	-0.5191018932	-0.1339364163	 0.342716
C	-2.278470363	 0.2416498357	-1.0638721232	-0.138124
O	-2.3584423591	 1.6227298534	-0.7078289922	-0.416566
C	-1.7237024663	-1.878593307	 0.2819874044	-0.22633
O	-1.9469926284	-0.7720792461	 1.1560877447	-0.272113
H	-0.4030987926	 1.7834395495	-0.1890912779	 0.288372
H	 0.530055232	-0.2798099213	-1.1110412517	 0.083556
H	 0.6458651039	-0.6927542648	 0.6099917858	 0.108639
H	-1.8962535327	 0.2190565174	-2.0897255493	 0.121797
H	-3.2743954676	-0.2207656443	-1.0580499237	 0.105255
H	-2.6957708919	 1.656105072	 0.1959839135	 0.30309
H	-2.61928713	-2.3464050986	-0.1256832658	 0.114261
H	-0.944193041	-2.5716029924	 0.5953873739	 0.120207
86.5258	125.8264	235.1411	288.4108	324.1595	353.8124	400.9563	478.6067	551.2329	611.7533	754.7545	876.0158	890.9669	948.1045	982.4851	1030.2296	1053.6684	1090.5181	1128.8567	1171.478	1197.4046	1237.1518	1307.5943	1353.4071	1366.8263	1414.8177	1437.8324	1477.3392	1488.1426	1500.1681	1530.5296	2944.8237	3017.6495	3073.0872	3082.0696	3085.0163	3167.0875	3738.8951	3789.6916
OCC1(CO)CO1	OCC1(CO)CO1	
InChI=1S/C4H8O3/c5-1-4(2-6)3-7-4/h5-6H,1-3H2	InChI=1S/C4H8O3/c5-1-4(2-6)3-7-4/h5-6H,1-3H2
