12
gdb 552	9.56893	2.53695	2.27029	1.8509	51.95	-0.2535	0.0206	0.274	567.0194	0.095784	-269.170508	-269.164562	-269.163618	-269.200269	20.79	
C	-0.2638868959	-1.2557046653	-0.2466196481	-0.456354
C	-0.0814087303	-0.0766454141	-0.0999263193	 0.3301
C	 0.1215796061	 1.3501734824	 0.0857986075	-0.018466
C	-0.1729477976	 1.9399340506	 1.4935735047	-0.286208
C	 1.3049617493	 2.3726913374	 1.463945802	-0.057661
O	 1.5177948106	 1.7316712454	 0.1869669236	-0.278725
H	-0.4197984543	-2.297582667	-0.3817240177	 0.202833
H	-0.3672724453	 1.8998516294	-0.7298534643	 0.10457
H	-0.9127583966	 2.7404915233	 1.515016931	 0.117482
H	-0.4204093744	 1.1893628927	 2.2436687925	 0.126269
H	 1.4769469412	 3.45450803	 1.4083380905	 0.104605
H	 1.9478852173	 1.9494093951	 2.2437982276	 0.111556
63.1858	179.9246	231.8855	501.1275	526.6186	617.7545	671.278	730.6003	806.9881	872.1866	945.7403	984.8323	1022.4614	1082.6314	1090.3281	1163.9069	1215.2316	1258.2006	1259.9349	1352.7605	1365.228	1489.5152	1531.4736	2234.6913	3008.5646	3022.5708	3064.4318	3093.2817	3153.9585	3502.8385
C#CC1CCO1	C#C[C@H]1CCO1	
InChI=1S/C5H6O/c1-2-5-3-4-6-5/h1,5H,3-4H2	InChI=1S/C5H6O/c1-2-5-3-4-6-5/h1,5H,3-4H2/t5-/m0/s1
