10
gdb 208	9.54923	3.68153	2.66498	1.6737	43.75	-0.2057	0.0107	0.2164	455.3577	0.075457	-301.373831	-301.368911	-301.367967	-301.401842	17.986	
N	 0.0265395295	 1.3980323151	 0.1701694311	-0.593498
C	-0.0415200514	 0.0156041579	 0.0513454989	 0.269764
C	-1.1083719027	-0.8278334395	 0.0049677536	-0.112546
O	-0.6139884259	-2.1160342644	-0.0396738566	-0.139353
C	 0.7174499569	-1.9621587808	-0.0176955506	 0.087545
N	 1.1270964503	-0.7348721792	 0.034549282	-0.298845
H	 0.9154754344	 1.754464029	-0.153920927	 0.256215
H	-0.743111431	 1.8912146971	-0.2596515704	 0.248743
H	-2.1774626146	-0.7188263642	 0.0011518368	 0.133155
H	 1.3157119945	-2.8593063411	-0.0469718877	 0.14882
236.021	322.1768	394.6879	626.1553	651.6908	659.2046	704.1837	760.9043	840.0922	937.2008	1000.0522	1080.0621	1094.9751	1174.6887	1265.972	1331.3286	1387.1661	1556.6547	1632.043	1673.8013	3274.4202	3306.1241	3556.8866	3655.4435
NC1=COC=N1	Nc1cocn1	
InChI=1S/C3H4N2O/c4-3-1-6-2-5-3/h1-2H,4H2	InChI=1S/C3H4N2O/c4-3-1-6-2-5-3/h1-2H,4H2
