15
gdb 834	6.91133	1.95756	1.54351	1.7982	64.62	-0.1686	0.0552	0.2239	789.8474	0.126359	-304.734226	-304.726872	-304.725928	-304.765329	27.008	
C	-0.0160963915	 1.5028646116	 0.0623868473	-0.502364
C	-0.0061386025	 0.0130767835	-0.0404937881	 0.333045
C	-0.0824806908	-0.8123124916	-1.1432055083	-0.292415
C	-0.0264830444	-2.1637127409	-0.6890400793	 0.262218
N	-0.1522695945	-3.3065646781	-1.5073798096	-0.605396
C	 0.0839098689	-2.1254193839	 0.683077311	-0.17551
N	 0.0885609748	-0.7932979351	 1.0610892255	-0.296692
H	 0.904700142	 1.8957452618	 0.512540368	 0.122455
H	-0.1086352612	 1.9431470373	-0.9330288259	 0.135252
H	-0.8556740747	 1.8717712764	 0.6652812625	 0.123978
H	-0.178576418	-0.4845893464	-2.1680420777	 0.077339
H	 0.3243712726	-3.1881085355	-2.3931081385	 0.236296
H	 0.2138808891	-4.1377011345	-1.0597135368	 0.233274
H	 0.1485270991	-2.9166705294	 1.4121083979	 0.097404
H	 0.1645771913	-0.4668993452	 2.0077006422	 0.251117
83.3913	171.1101	201.5805	273.8074	300.1342	400.638	417.1982	591.0319	619.9759	639.562	665.5649	728.7294	766.9361	806.0218	975.2149	996.9812	1014.2552	1059.8785	1104.9501	1129.8565	1187.5889	1300.2998	1326.2753	1417.6854	1456.0696	1464.6069	1480.5364	1511.0931	1559.0859	1643.0815	1660.2315	3013.3401	3055.673	3121.6144	3236.5069	3261.5449	3523.6379	3610.5602	3688.9495
CC1=CC(N)=CN1	Cc1cc(N)c[nH]1	
InChI=1S/C5H8N2/c1-4-2-5(6)3-7-4/h2-3,7H,6H2,1H3	InChI=1S/C5H8N2/c1-4-2-5(6)3-7-4/h2-3,7H,6H2,1H3
