11
gdb 4632	6.62816	1.4075	1.16097	4.5736	64.07	-0.2196	-0.028	0.1916	927.9066	0.072142	-397.420216	-397.413559	-397.412615	-397.451013	24.694	
O	 0.0694234205	-0.0084668296	 0.0025374265	-0.389936
C	-0.0160618038	 1.1862355467	 0.0098024954	 0.466954
N	-1.1419853343	 1.9908707023	 0.0295800727	-0.34936
C	-0.7804054889	 3.3259141759	 0.0309021813	-0.210377
C	 0.5678980692	 3.3631871459	 0.0117688161	 0.218558
O	 1.0528855264	 2.0581724199	-0.001284712	-0.240043
C	 1.4764133805	 4.4293621497	 0.0039022321	 0.272115
C	 2.2621462172	 5.3420550717	-0.0029219678	-0.420956
H	-2.0720554586	 1.6106814184	 0.040302755	 0.284377
H	-1.493601176	 4.1312814678	 0.0449772298	 0.164158
H	 2.9543430378	 6.1475113713	-0.008899279	 0.204509
137.3332	151.4242	239.7727	416.2261	443.1215	487.2776	549.7486	560.5717	586.8546	647.3531	704.4356	758.194	769.8662	782.2031	951.4728	957.0861	1087.8648	1126.6113	1267.8073	1331.1707	1413.4267	1666.4369	1904.4355	2234.6266	3295.8692	3501.7662	3693.5455
O=C1NC=C(O1)C#C	O=c1[nH]cc(o1)C#C	
InChI=1S/C5H3NO2/c1-2-4-3-6-5(7)8-4/h1,3H,(H,6,7)	InChI=1S/C5H3NO2/c1-2-4-3-6-5(7)8-4/h1,3H,(H,6,7)
