16
gdb 474	3.86929	3.62098	2.67648	1.3139	56.45	-0.2441	0.0725	0.3165	589.5057	0.141848	-271.61858	-271.611272	-271.610327	-271.649185	26.227	
C	-0.0422277992	 1.5657831302	 0.0864139783	-0.413841
C	 0.0524523469	 0.0596151018	-0.0319517076	-0.051486
C	 0.7059027058	-0.6256953999	-1.2242302881	-0.033208
C	 1.2964507882	 0.1432054336	-2.3867891469	-0.401331
C	 1.383867781	-0.6503121788	 0.1193754578	 0.076409
O	 2.5588415823	 0.1037330651	 0.2355390387	-0.415537
H	 0.898606987	 2.0513078709	-0.1817756785	 0.127092
H	-0.8270490321	 1.9696701767	-0.5622812759	 0.117984
H	-0.2851264026	 1.859491945	 1.1143124894	 0.109296
H	-0.8004341475	-0.4691613756	 0.3873663215	 0.077855
H	 0.2419063109	-1.5655507226	-1.5131540041	 0.080581
H	 1.8902070865	 0.9937050436	-2.0491729081	 0.133417
H	 1.9580073284	-0.5020914819	-2.974689512	 0.116205
H	 0.5116156325	 0.5120506473	-3.0562561927	 0.110261
H	 1.4041911099	-1.5939043335	 0.665149026	 0.078351
H	 2.5833823822	 0.4809564181	 1.1211116122	 0.287951
133.5995	145.699	204.8686	208.4899	284.686	303.98	446.6093	565.5221	574.123	753.762	764.2741	869.7929	945.4651	966.959	1032.7446	1045.4245	1099.828	1134.9108	1159.0177	1181.782	1184.4222	1252.4551	1295.8831	1370.4352	1383.7562	1412.6121	1420.532	1459.885	1488.6758	1494.74	1505.3847	1515.0511	3030.4231	3036.4023	3083.0371	3088.6957	3089.4091	3116.8755	3128.2969	3134.3654	3146.8474	3804.5176
CC1C(C)C1O	C[C@H]1[C@@H](C)[C@H]1O	
InChI=1S/C5H10O/c1-3-4(2)5(3)6/h3-6H,1-2H3	InChI=1S/C5H10O/c1-3-4(2)5(3)6/h3-6H,1-2H3/t3-,4+,5-
