13
gdb 137	12.80895	2.7832	2.48922	2.2019	42.99	-0.261	0.0821	0.3431	522.4181	0.113563	-269.465281	-269.45898	-269.458036	-269.494828	21.001	
C	 0.0347806456	 1.2913768586	 0.1247459533	-0.226813
O	-0.0124513596	-0.1105695501	 0.0035215127	-0.242496
C	-1.3281919535	-0.6320221466	-0.0127607421	-0.06773
C	-1.1967300713	-2.1468266455	 0.0064786786	-0.056405
O	-0.5031446939	-2.5873432681	 1.1564186604	-0.421717
H	 1.0873414096	 1.5846828113	 0.1391786759	 0.129152
H	-0.4608000759	 1.789066804	-0.7231438927	 0.107676
H	-0.445320765	 1.6365049394	 1.0536386033	 0.108764
H	-1.8839981446	-0.2911083706	 0.8759161059	 0.094035
H	-1.8749792357	-0.2956683369	-0.9096196771	 0.086461
H	-2.1909411142	-2.6051178926	 0.028353111	 0.107114
H	-0.6937741941	-2.4732100908	-0.9180616798	 0.092872
H	 0.2895967725	-2.0398442621	 1.2052767005	 0.289089
98.3929	149.5436	232.7093	275.5848	371.9158	443.8249	548.198	844.6452	908.36	1028.7742	1084.8873	1132.6857	1164.0093	1187.99	1201.741	1256.89	1268.9683	1386.4867	1404.7972	1443.5086	1479.3146	1486.5403	1498.5527	1501.2763	1522.3017	2959.8767	2976.0055	2977.7723	3004.1575	3021.7706	3078.8943	3114.4347	3793.7171
COCCO	COCCO	
InChI=1S/C3H8O2/c1-5-3-2-4/h4H,2-3H2,1H3	InChI=1S/C3H8O2/c1-5-3-2-4/h4H,2-3H2,1H3
