15
gdb 4174	3.91594	1.58345	1.24991	0.9391	66.56	-0.2295	-0.0034	0.2261	957.0614	0.117233	-399.712995	-399.705463	-399.704519	-399.744821	28.054	
O	-0.1221082244	 1.3268154258	 0.0595349453	-0.390081
N	 0.0260437917	-0.0644301214	 0.200633804	-0.24335
C	-1.081133021	-0.6523837852	 0.0449402606	 0.268302
C	-2.5245999704	-0.3158707931	-0.2483172711	-0.162132
O	-2.8507190692	-1.7311169654	-0.1925201356	-0.320366
C	-1.4859792194	-2.0777326589	 0.0870857318	 0.395192
C	-0.8219391687	-3.301099365	-0.4643155316	-0.326374
C	-1.0957185043	-3.1793704254	 1.0228802109	-0.326373
H	 0.7767450565	 1.6438582182	 0.1990746854	 0.310558
H	-3.043361325	 0.2646669762	 0.5228748336	 0.132519
H	-2.7199145506	 0.1208590274	-1.2342149881	 0.13252
H	-1.4531552064	-3.9727095324	-1.0359752066	 0.132469
H	 0.1979703283	-3.2044005509	-0.8202877415	 0.132324
H	-0.2653923674	-2.9983784852	 1.6967365456	 0.132323
H	-1.9075347197	-3.7706840748	 1.4322597173	 0.13247
123.369	143.7517	156.5157	278.9702	303.6627	359.4323	459.1529	503.1921	534.0645	605.6959	759.7278	774.2478	872.4533	874.979	926.8729	973.8269	986.9622	1009.092	1031.0127	1051.1685	1066.0856	1113.2014	1129.8516	1191.575	1229.1218	1315.5154	1358.5045	1432.7041	1444.1228	1481.3208	1504.0572	1813.1992	3031.9982	3078.4379	3133.9909	3135.4365	3220.6387	3234.7864	3816.7772
ON=C1COC11CC1	ON=C1COC21CC2	
InChI=1S/C5H7NO2/c7-6-4-3-8-5(4)1-2-5/h7H,1-3H2	InChI=1S/C5H7NO2/c7-6-4-3-8-5(4)1-2-5/h7H,1-3H2
