17
gdb 2149	3.55485	2.90776	1.8561	1.6336	64.77	-0.2501	0.012	0.2621	726.6992	0.149145	-309.731169	-309.724095	-309.72315	-309.761939	26.927	
C	-0.0274880287	 1.5661721394	 0.0025584965	-0.390208
C	 0.0941380867	 0.0448500374	 0.0119927506	 0.001867
C	 0.8870913064	-0.5617682147	-1.1760909118	-0.271483
C	 1.5630190522	-1.7646692097	-0.5638026899	-0.059456
C	 1.4634131225	-1.7801643489	 0.7660388881	-0.109744
C	 0.7718226303	-0.543343036	 1.289549412	 0.089209
O	 1.6989148075	 0.334886091	 1.9344361736	-0.428982
H	 0.955408331	 2.0403143784	 0.0768705188	 0.111451
H	-0.5060993916	 1.9135492056	-0.919103375	 0.106158
H	-0.623915924	 1.9221725344	 0.848305941	 0.11722
H	-0.9123191612	-0.3900635784	-0.0216822077	 0.077881
H	 0.2333819103	-0.8267442101	-2.0150881775	 0.106216
H	 1.629176103	 0.1406026119	-1.5834077632	 0.101973
H	 2.0779375169	-2.5110976004	-1.1601727596	 0.095775
H	 1.892912426	-2.5240230776	 1.4278892326	 0.095393
H	 0.0273494326	-0.7543315637	 2.0642357309	 0.082415
H	 2.4933555002	 0.3613089914	 1.3897026908	 0.274315
91.5643	217.0723	252.178	271.9878	332.7299	358.66	494.7486	518.3172	672.4841	744.7331	779.077	800.6205	900.5816	926.0803	966.7705	983.1551	995.1131	1007.3922	1075.4542	1114.0933	1131.3364	1159.6043	1191.5913	1246.3947	1280.9476	1313.5421	1334.3907	1361.3357	1375.9146	1410.4971	1430.9524	1486.669	1492.01	1496.8004	1677.3822	3003.0902	3024.2604	3036.6459	3053.7682	3060.5524	3102.2245	3111.9894	3177.296	3205.0135	3800.0249
CC1CC=CC1O	C[C@H]1CC=C[C@H]1O	
InChI=1S/C6H10O/c1-5-3-2-4-6(5)7/h2,4-7H,3H2,1H3	InChI=1S/C6H10O/c1-5-3-2-4-6(5)7/h2,4-7H,3H2,1H3/t5-,6+/m0/s1
