17
gdb 3514	7.03588	1.61663	1.42384	1.929	64.02	-0.2416	0.0851	0.3266	868.6504	0.149209	-309.67919	-309.67228	-309.671335	-309.710765	25.053	
C	-0.1832542685	 1.3605804231	-0.2295198909	-0.271954
C	 1.2616484213	 1.0870168457	 0.1040740298	-0.271951
C	 0.2679672522	-0.0490712999	 0.068237277	 0.017957
C	-0.1545290801	-0.7331084804	 1.3373559501	-0.027718
C	-1.3997049071	-1.6528286666	 1.2961595754	-0.085727
O	-0.6498078463	-2.7706326115	 1.8125095056	-0.272679
C	 0.5847293138	-2.0283452428	 1.754374438	-0.085722
H	-0.7884225909	 1.8667927023	 0.5156458444	 0.11188
H	-0.4373393839	 1.6148319109	-1.2524290657	 0.113935
H	 1.9962058214	 1.1540925043	-0.6905781086	 0.113935
H	 1.6278161543	 1.4093223115	 1.0735027962	 0.11188
H	 0.3403206975	-0.7136573715	-0.790150316	 0.083642
H	-0.2053089003	-0.0058342428	 2.1532826526	 0.073302
H	-2.2374527918	-1.3815610702	 1.9495330302	 0.099532
H	-1.7866924012	-1.8477742283	 0.2860504749	 0.095077
H	 1.2689426746	-2.425994606	 0.9916097756	 0.095078
H	 1.1025885351	-2.0136018578	 2.7207640612	 0.099531
66.8757	86.4596	187.6907	276.2492	365.8238	448.7892	701.9186	792.0022	828.9585	856.1811	888.7967	916.5379	921.6962	984.52	1012.6375	1037.0274	1049.8526	1060.2641	1081.7561	1096.4414	1138.9437	1159.5768	1160.8836	1198.5837	1221.1286	1244.3789	1261.8145	1307.2823	1308.5716	1379.9619	1439.8234	1470.6655	1506.7465	1511.3341	1537.5997	2995.3459	3006.7868	3043.3653	3050.0521	3067.2748	3127.9066	3130.0628	3135.2889	3208.277	3223.163
C1CC1C1COC1	C1CC1C1COC1	
InChI=1S/C6H10O/c1-2-5(1)6-3-7-4-6/h5-6H,1-4H2	InChI=1S/C6H10O/c1-2-5(1)6-3-7-4-6/h5-6H,1-4H2
