15
gdb 2214	3.8296	3.26748	2.31662	1.4973	56.51	-0.2441	0.0603	0.3044	627.7238	0.124807	-345.612257	-345.605915	-345.604971	-345.64222	23.778	
C	-0.1147738584	 1.5701388263	 0.0231274307	-0.481527
C	 0.0574860396	 0.0777368569	 0.0680731232	 0.397722
C	-1.1532664723	-0.8616623224	 0.2454005402	-0.115388
O	-0.4355016427	-1.6623028679	 1.2201157301	-0.292946
C	 0.7190269557	-0.8097846201	 1.1525589923	 0.018396
C	 1.7013178504	-1.2115743417	 0.0458085882	-0.098535
O	 0.976725821	-0.4223400122	-0.9329424286	-0.328449
H	 0.8519080857	 2.0754566091	 0.1007620442	 0.129027
H	-0.5730764302	 1.865282441	-0.9276164851	 0.134966
H	-0.7608939524	 1.9151391739	 0.8359856382	 0.124292
H	-2.045143886	-0.4025641117	 0.6911968153	 0.099216
H	-1.4295503495	-1.4278962126	-0.6503766196	 0.112033
H	 1.089599346	-0.5070473055	 2.1338896841	 0.085856
H	 2.726469799	-0.8402366186	 0.1728540384	 0.102068
H	 1.7160198342	-2.2800071545	-0.1938245517	 0.113269
145.1766	196.3112	251.369	339.1217	399.0638	413.9774	631.3364	710.1993	831.3586	847.7683	909.4661	917.3674	962.4008	996.0185	999.3953	1042.6803	1080.2192	1141.4129	1156.7153	1175.9434	1188.4006	1204.0289	1280.3799	1312.0095	1339.2152	1381.2747	1412.5674	1480.3476	1489.7151	1503.5083	1506.0444	3013.4149	3015.5206	3035.8342	3078.0634	3079.2401	3094.1347	3103.5235	3119.3662
CC12COC1CO2	C[C@]12CO[C@H]1CO2	
InChI=1S/C5H8O2/c1-5-3-6-4(5)2-7-5/h4H,2-3H2,1H3	InChI=1S/C5H8O2/c1-5-3-6-4(5)2-7-5/h4H,2-3H2,1H3/t4-,5-/m0/s1
