17
gdb 1524	7.89851	1.26249	1.11859	1.8144	61.68	-0.265	0.0212	0.2862	1083.288	0.14628	-346.90405	-346.895328	-346.894384	-346.938388	29.302	
C	 0.052143755	 1.5261168314	-0.1182686793	-0.390739
C	-0.0003082975	 0.0142934356	-0.0092465355	-0.040234
O	 0.6620124197	-0.5299144115	-1.1675678721	-0.246912
C	 0.7119705636	-1.8759548662	-1.2391222508	 0.446983
O	 0.2418791996	-2.6074942795	-0.4035625725	-0.355417
C	 1.4306193742	-2.3211677929	-2.4974857656	-0.301095
C	 1.5132621367	-3.8400941072	-2.6255512252	-0.369674
H	 1.0865512373	 1.8800643034	-0.1477180408	 0.128894
H	-0.4543462598	 1.8702912982	-1.0244460666	 0.128897
H	-0.4426413523	 1.9785717343	 0.7462976185	 0.122548
H	 0.5035365828	-0.3497097983	 0.8918496338	 0.120679
H	-1.0288336525	-0.3593652044	 0.0201702515	 0.120654
H	 0.9116487138	-1.8729471971	-3.3531233822	 0.130482
H	 2.4269072556	-1.8632077354	-2.4911782021	 0.13049
H	 2.0456472717	-4.2759919391	-1.7764606591	 0.131932
H	 0.51563786	-4.2858122631	-2.6476307835	 0.131902
H	 2.0377805021	-4.1189853183	-3.5436522987	 0.110609
29.5388	63.1174	131.3645	150.8294	210.8391	259.2968	283.7535	359.5294	452.9576	580.885	666.1737	805.0214	812.9952	876.3976	908.9373	1012.9885	1053.0299	1102.9065	1107.3449	1137.194	1183.4744	1217.1587	1277.148	1290.8045	1371.5853	1402.1427	1417.1326	1424.7186	1459.0676	1485.9491	1493.9969	1496.5266	1500.7652	1521.0004	1817.1512	3041.4328	3045.8167	3050.266	3052.1419	3070.6703	3087.4948	3119.9496	3123.471	3125.2486	3129.1534
CCOC(=O)CC	CCOC(=O)CC	
InChI=1S/C5H10O2/c1-3-5(6)7-4-2/h3-4H2,1-2H3	InChI=1S/C5H10O2/c1-3-5(6)7-4-2/h3-4H2,1-2H3
