8
gdb 169	10.3093	9.81117	5.02703	0.0597	35.3	-0.2742	-0.0055	0.2687	265.6333	0.059852	-242.18601	-242.182459	-242.181515	-242.212163	11.936	
N	 0.0151331704	 1.2610567998	 0.0092789263	-0.059724
N	 1.2202348311	 1.8132422785	 0.0003313782	-0.194466
C	 2.0319662765	 0.7544357864	-0.0135001746	-0.05024
C	 1.2504054218	-0.4117939627	-0.012279037	-0.050239
N	-0.0374785504	-0.0634966203	 0.0023922831	-0.194466
H	-0.8215034412	 1.8217486595	 0.0206998903	 0.294673
H	 3.1029214669	 0.8767068034	-0.0234000089	 0.127232
H	 1.544433295	-1.4488407846	-0.0209464973	 0.127231
543.1701	685.4642	728.4622	856.1993	903.4542	966.513	984.3657	1091.3162	1141.5643	1184.9441	1274.0725	1295.2353	1410.575	1439.4706	1544.3044	3268.0478	3285.008	3670.0331
N1N=CC=N1	[nH]1nccn1	
InChI=1S/C2H3N3/c1-2-4-5-3-1/h1-2H,(H,3,4,5)	InChI=1S/C2H3N3/c1-2-4-5-3-1/h1-2H,(H,3,4,5)
