14
gdb 2654	19.87806	0.88634	0.87093	2.6389	59.58	-0.2611	-0.0407	0.2204	1261.2558	0.109902	-361.706503	-361.698175	-361.697231	-361.740878	26.558	
C	-0.0113913041	 1.4019150067	-0.0552536698	-0.316629
N	-0.1231086778	 0.0280333411	-0.4986495141	-0.197942
C	-1.0588279117	-0.6607524326	-0.0266835485	 0.135533
O	-1.1976317438	-1.962036594	-0.3752598589	-0.204304
C	-2.3609961118	-2.63269893	 0.0707629345	-0.16393
C	-2.0137663927	-4.094449359	 0.3130880753	 0.141101
O	-2.8429242873	-4.9422505296	 0.5019327817	-0.228734
H	 0.9664788571	 1.5567798614	 0.4141497537	 0.132886
H	-0.0574740263	 2.0701645302	-0.9222235451	 0.132907
H	-0.7914858267	 1.7077596587	 0.6608599586	 0.098402
H	-1.8146372827	-0.303585636	 0.6912908697	 0.077927
H	-2.7381205259	-2.2081894382	 1.0132034666	 0.137847
H	-3.1669525916	-2.5695113874	-0.6713479975	 0.146967
H	-0.9219181149	-4.3022470715	 0.3098445438	 0.107968
21.1624	68.3079	90.6191	171.3467	207.5691	290.7654	305.6516	406.7241	480.5835	645.3444	736.5131	976.8005	1028.3114	1043.4528	1086.58	1117.4677	1141.5026	1159.3327	1225.9925	1278.9151	1342.8653	1397.0849	1411.3954	1450.1974	1470.9405	1480.4021	1504.9633	1786.0524	1846.3316	2911.2161	2969.2053	2985.4686	3002.0512	3054.9568	3062.6761	3082.8469
CN=COCC=O	CN=COCC=O	
InChI=1S/C4H7NO2/c1-5-4-7-3-2-6/h2,4H,3H2,1H3	InChI=1S/C4H7NO2/c1-5-4-7-3-2-6/h2,4H,3H2,1H3
