17
gdb 4145	4.79533	1.56024	1.44607	1.1525	71.79	-0.235	0.0233	0.2583	905.4825	0.14419	-363.813558	-363.806932	-363.805988	-363.844152	26.774	
O	-0.1748244733	 1.3026054397	 0.0415377459	-0.398896
N	 0.0011456123	-0.0997082474	 0.0108393112	-0.292514
C	-1.11951321	-0.69296946	 0.0048321069	 0.479373
C	-2.5462554304	-0.1567783034	 0.0244886298	-0.302718
C	-3.2679935487	-1.5240329644	-0.0001962846	-0.028267
C	-2.4482567598	-2.3419559545	 1.0414514254	-0.226929
C	-1.310528734	-2.1844113363	-0.025446424	-0.099657
C	-2.460550738	-2.2971381168	-1.0847993201	-0.226929
H	 0.7350457225	 1.6175770039	 0.0429455176	 0.303436
H	-2.749562998	 0.4345130631	 0.9227856788	 0.121603
H	-2.7598783631	 0.4718703242	-0.8456041061	 0.121598
H	-4.35738993	-1.5123921016	 0.0063519878	 0.067062
H	-2.2859623597	-1.9095810605	 2.0326153351	 0.100104
H	-2.7867657206	-3.3768407262	 1.1270360201	 0.102305
H	-0.4194949064	-2.8078274162	-0.0437410188	 0.07802
H	-2.8002550784	-3.3275877239	-1.2099933964	 0.102303
H	-2.3096271743	-1.8233420796	-2.0586746287	 0.100105
122.3234	219.6281	305.6773	390.7216	435.1822	450.6289	538.4571	580.6008	646.4783	807.4498	822.2153	833.5738	851.0414	876.0651	934.221	942.1469	966.5772	1006.8795	1020.3892	1053.2334	1072.7812	1089.3285	1092.7919	1161.2518	1200.3186	1224.1164	1234.2672	1256.5458	1262.3148	1301.7728	1318.3049	1406.3914	1474.4427	1485.9718	1523.3399	1784.1927	3054.2322	3056.4747	3060.6059	3094.6473	3119.1733	3120.3594	3124.621	3148.7465	3821.3967
ON=C1CC2CC1C2	ON=C1C[C@@H]2C[C@H]1C2	
InChI=1S/C6H9NO/c8-7-6-3-4-1-5(6)2-4/h4-5,8H,1-3H2	InChI=1S/C6H9NO/c8-7-6-3-4-1-5(6)2-4/h4-5,8H,1-3H2/t4-,5+
