11
gdb 3879	7.48635	2.21265	1.71359	3.8827	48.24	-0.208	0.0401	0.2481	660.9295	0.081015	-372.796889	-372.790688	-372.789744	-372.826706	22.596	
N	 0.0361084234	 1.382334612	 0.1605524754	-0.588076
C	-0.001048116	 0.0033940866	 0.0462615691	 0.448016
N	-1.0781121582	-0.7207727369	 0.0365245279	-0.288431
N	-0.5936233012	-2.0239733982	 0.0197203423	-0.300185
C	 0.7747844684	-2.1202397463	 0.0082262036	 0.459208
O	 1.4981993135	-3.091271884	 0.0007092509	-0.420906
N	 1.1407419314	-0.7587290565	 0.0036172491	-0.390361
H	 0.628649785	 1.8328895642	-0.5267548983	 0.257467
H	-0.9002003063	 1.7668295989	 0.1269412194	 0.26798
H	-1.2325759463	-2.7975457078	 0.0456553292	 0.279228
H	 2.0889825363	-0.4465270919	 0.1197920914	 0.276061
136.6798	260.0119	285.6119	340.4624	412.6504	470.7462	531.4141	659.3219	675.2969	746.0407	779.8313	797.3736	995.6405	1024.9635	1066.9517	1177.1049	1257.8685	1289.8794	1387.5964	1530.5455	1626.3831	1694.9459	1861.1672	3529.6406	3626.0108	3687.7228	3709.4279
NC1=NNC(=O)N1	Nc1n[nH]c(=O)[nH]1	
InChI=1S/C2H4N4O/c3-1-4-2(7)6-5-1/h(H4,3,4,5,6,7)	InChI=1S/C2H4N4O/c3-1-4-2(7)6-5-1/h(H4,3,4,5,6,7)
