18
gdb 3241	8.01379	1.35411	1.32962	1.0336	68.84	-0.2292	0.0928	0.322	967.1248	0.160498	-289.791234	-289.784015	-289.783071	-289.822918	26.764	
C	-0.2221315521	 1.6382866182	 0.0418682737	-0.161373
C	-0.2148470068	 0.1507138821	-0.2168992174	 0.037064
C	-0.1849163449	-0.8166447217	 0.9358713315	-0.244602
C	-1.4373763903	-0.671211962	 0.1066313525	-0.274767
N	 1.1247526607	 2.1462502638	 0.2971539454	-0.054469
C	 1.8927075053	 2.5439025662	-0.8784989091	-0.21839
C	 1.332144554	 3.5672310475	 0.0462365934	-0.220101
H	-0.6996825616	 2.1625934736	-0.8083831983	 0.076158
H	-0.831718173	 1.8525630586	 0.9290158057	 0.095673
H	 0.3393718961	-0.143865569	-1.1044506022	 0.080741
H	 0.3990915121	-1.7243231887	 0.8327640722	 0.109429
H	-0.1857314764	-0.4016529142	 1.9381698685	 0.114927
H	-2.2862462482	-0.1631804341	 0.5533387133	 0.108501
H	-1.7102130669	-1.476585972	-0.5662837117	 0.109613
H	 2.9509588488	 2.299561326	-0.8611749131	 0.115217
H	 1.4189968962	 2.4495168427	-1.855220926	 0.105757
H	 0.4872597871	 4.1515920365	-0.3165340191	 0.105812
H	 1.97245608	 4.0854071866	 0.7545244706	 0.114811
72.3977	91.943	170.2468	290.5066	357.52	413.4778	464.2221	759.8063	777.788	816.6025	828.9606	851.7311	890.7544	929.4332	957.9468	1013.193	1035.0095	1039.5242	1059.8083	1077.4779	1110.3626	1115.7176	1136.8348	1160.4325	1180.0727	1196.7032	1208.9658	1228.8507	1293.8516	1319.1949	1361.9372	1426.4299	1470.3816	1485.1602	1494.3869	1508.6949	1523.1746	2915.0282	3038.4551	3088.9929	3094.0207	3128.9418	3134.9809	3139.5352	3173.2518	3187.4916	3207.0942	3223.2416
C(C1CC1)N1CC1	C(C1CC1)N1CC1	
InChI=1S/C6H11N/c1-2-6(1)5-7-3-4-7/h6H,1-5H2	InChI=1S/C6H11N/c1-2-6(1)5-7-3-4-7/h6H,1-5H2
