6
gdb 176	10.97997	10.24035	5.29863	1.9641	28.86	-0.3379	-0.0815	0.2563	240.038	0.033459	-278.059333	-278.055942	-278.054997	-278.0854	10.694	
O	-0.0593325887	 1.2684201211	 0.0095178503	-0.133009
N	 1.1946293712	 1.771776509	 0.0001229152	-0.070152
C	 1.9590217387	 0.7210517427	-0.0128069641	 0.10671
N	 1.2270421979	-0.4479406483	-0.0121559722	-0.149823
N	 0.0119302176	-0.1246338293	 0.0012973737	 0.065872
H	 3.0355546734	 0.7552313348	-0.0229864829	 0.180403
674.4573	675.9075	713.0411	903.3598	957.1267	1022.4896	1070.81	1105.2277	1283.7773	1418.355	1559.1675	3303.0108
O1N=CN=N1	o1ncnn1	
InChI=1S/CHN3O/c1-2-4-5-3-1/h1H	InChI=1S/CHN3O/c1-2-4-5-3-1/h1H
