19
gdb 1142	4.6764	1.94559	1.79366	1.5121	67.47	-0.2383	0.0836	0.3219	825.052	0.169811	-310.923406	-310.9153	-310.914355	-310.955303	30.357	
C	-0.4185568937	 1.2392676703	 0.9950444231	-0.398921
C	 0.2520233769	-0.0185904106	 0.4793564351	 0.174874
C	 0.5722887634	-0.1220334736	-1.0261840449	-0.347907
C	 2.0411048634	-0.3192781892	-0.5684944999	 0.445143
C	 2.5777378798	-1.737139547	-0.7335194515	-0.424111
C	 3.0405129346	 0.7281194079	-1.0381904346	-0.427282
O	 1.6576284336	-0.0789435932	 0.8197513588	-0.340998
H	 0.0720300435	 2.1336273374	 0.5984118251	 0.116232
H	-1.4739100451	 1.2597951198	 0.7004727318	 0.112481
H	-0.3684754941	 1.278190562	 2.0879548685	 0.125449
H	-0.2720074392	-0.9037271723	 0.8684936359	 0.068608
H	 0.1213173407	-0.9582477665	-1.5637567857	 0.100948
H	 0.3970821951	 0.8012402124	-1.5842632696	 0.099956
H	 2.7975189191	-1.9517839184	-1.7852462479	 0.110974
H	 3.500011124	-1.8632491574	-0.1572940043	 0.121356
H	 1.85090838	-2.4727119256	-0.3766760088	 0.114893
H	 2.6467398657	 1.7361428487	-0.8821453061	 0.114789
H	 3.9781976398	 0.6383028991	-0.479708261	 0.121575
H	 3.2634753126	 0.6022909262	-2.103540934	 0.111942
61.1894	198.0583	223.6901	234.1472	268.3575	326.6869	347.9981	385.1004	424.9243	486.017	628.9426	778.0616	861.0427	886.7656	909.8341	924.5798	932.8165	977.0058	992.6046	1030.9573	1085.6865	1116.3431	1180.0189	1199.7166	1239.1035	1279.0988	1289.3185	1321.1979	1390.0733	1399.4534	1408.6398	1413.7577	1473.3757	1480.8799	1482.5385	1490.3621	1494.4238	1496.4475	1506.368	2989.1291	3028.9973	3030.5572	3034.5013	3066.1455	3098.6293	3102.3388	3105.7646	3109.4841	3110.1035	3114.1419	3123.0613
CC1CC(C)(C)O1	C[C@H]1CC(C)(C)O1	
InChI=1S/C6H12O/c1-5-4-6(2,3)7-5/h5H,4H2,1-3H3	InChI=1S/C6H12O/c1-5-4-6(2,3)7-5/h5H,4H2,1-3H3/t5-/m0/s1
