14
gdb 2632	7.68126	1.21518	1.12169	3.6158	60.58	-0.2544	0.0225	0.2769	1006.1753	0.112152	-324.569009	-324.561059	-324.560115	-324.602	27.132	
O	 0.4711439071	 0.887022664	-1.4736444064	-0.320758
C	 0.2234629346	 1.505830898	-0.4601057223	 0.14897
N	 1.0920286226	 1.6757341461	 0.5718661626	-0.267773
C	 2.4382206276	 1.1293159041	 0.5464608842	-0.15863
C	 3.4149857166	 1.9909753299	-0.2872373138	-0.340758
C	 4.7688152631	 1.4556433253	-0.2625636295	 0.291862
C	 5.8739841294	 0.9858107527	-0.2128245929	-0.436996
H	-0.7527632786	 1.9940732735	-0.2681033537	 0.077631
H	 0.8072453901	 2.2492853408	 1.3490313888	 0.251203
H	 2.7982125123	 1.0423177053	 1.5744417413	 0.120137
H	 2.3924876	 0.1266016782	 0.1151926709	 0.152155
H	 3.0395610018	 2.0308379526	-1.3155562809	 0.161554
H	 3.4101568383	 3.0192453099	 0.0955011422	 0.123887
H	 6.8550247951	 0.5806728997	-0.1859290704	 0.197516
50.969	69.2376	139.9191	207.8278	272.5087	354.5155	400.0091	498.0399	509.5701	622.1104	648.9419	724.1785	822.4604	963.7115	981.5646	1021.6798	1036.7316	1086.9429	1202.9273	1244.9109	1301.4588	1334.14	1398.6401	1428.165	1469.3737	1481.212	1525.1044	1803.2743	2239.72	2936.3874	3029.4248	3070.2162	3076.9924	3126.8513	3507.2152	3642.2659
O=CNCCC#C	O=CNCCC#C	
InChI=1S/C5H7NO/c1-2-3-4-6-5-7/h1,5H,3-4H2,(H,6,7)	InChI=1S/C5H7NO/c1-2-3-4-6-5-7/h1,5H,3-4H2,(H,6,7)
