13
gdb 1595	3.98767	2.30141	1.53883	0.7632	54.66	-0.2683	0.009	0.2773	756.8913	0.101264	-340.690205	-340.682538	-340.681594	-340.722425	26.68	
C	-1.0281044318	 1.5311330986	-0.7540018813	-0.387395
C	-0.1065908811	 0.4008320852	-0.2549325281	-0.262422
C	-0.8586837617	-0.6925053025	 0.3575131929	 0.280964
N	-1.434825684	-1.5866147249	 0.8121434621	-0.332008
C	 0.8374542462	-0.0671945909	-1.3993099858	 0.442659
N	 0.9872395361	-1.404597585	-1.5473878955	-0.537626
O	 1.4088856822	 0.7609588882	-2.0765439946	-0.357944
H	-0.408588348	 2.2850115119	-1.2408401079	 0.160637
H	-1.7527972983	 1.1499286957	-1.4777851414	 0.14114
H	-1.5714832107	 1.9811122768	 0.0793430968	 0.13511
H	 0.5629270074	 0.8094138834	 0.5127683104	 0.16076
H	 0.4607797837	-2.0701002729	-1.0065841554	 0.285612
H	 1.59267256	-1.7337011237	-2.2816216022	 0.270512
37.5206	162.6649	220.4374	231.0863	276.3833	316.1121	417.291	495.8753	520.8786	577.3842	612.4338	718.7877	797.7653	880.5321	1033.0215	1085.4808	1106.6171	1129.6151	1270.4865	1315.6268	1347.2716	1403.7212	1492.9613	1499.9537	1620.8771	1809.7002	2347.3819	3040.9622	3060.7985	3136.4406	3159.2173	3596.1841	3728.282
CC(C#N)C(N)=O	C[C@@H](C#N)C(=O)N	
InChI=1S/C4H6N2O/c1-3(2-5)4(6)7/h3H,1H3,(H2,6,7)	InChI=1S/C4H6N2O/c1-3(2-5)4(6)7/h3H,1H3,(H2,6,7)/t3-/m0/s1
