11
gdb 3933	3.94308	3.35925	1.82078	2.3214	47.83	-0.207	0.0348	0.2418	624.3236	0.079639	-376.575382	-376.569108	-376.568164	-376.605221	22.904	
O	 0.0818554718	 1.3278536524	 0.1588119711	-0.434183
C	 0.0542443785	-0.0104577543	 0.0005342004	 0.383615
C	 0.0327041843	-0.8008373371	-1.1311543767	 0.076779
O	-0.016332689	-0.2892495306	-2.4083342324	-0.45934
C	-0.0085991061	-2.1241488009	-0.6399780211	-0.086138
N	-0.0012136598	-2.1562340281	 0.68962399	-0.236748
N	 0.0274728294	-0.8483679178	 1.0584079404	-0.251254
H	 0.074720918	 1.7135266517	-0.7264478018	 0.314777
H	 0.7170536001	-0.647685461	-2.9188224281	 0.302289
H	-0.0358557943	-3.0464326468	-1.2022090981	 0.111097
H	 0.0248618972	-0.6000536877	 2.0325281562	 0.279107
186.858	240.602	273.5152	329.906	369.7611	446.4939	480.0941	667.7365	680.5286	689.4343	764.5584	863.3238	940.61	1098.3607	1161.7056	1185.5526	1242.1638	1296.8943	1375.0444	1415.3468	1451.4868	1596.9663	1678.5872	3238.8941	3682.3445	3794.4936	3806.3219
OC1=C(O)C=NN1	Oc1c(O)cn[nH]1	
InChI=1S/C3H4N2O2/c6-2-1-4-5-3(2)7/h1,6H,(H2,4,5,7)	InChI=1S/C3H4N2O2/c6-2-1-4-5-3(2)7/h1,6H,(H2,4,5,7)
