14
gdb 608	6.66589	2.4248	2.01739	3.3091	55.07	-0.2446	-0.0158	0.2288	637.5147	0.118807	-270.434394	-270.427936	-270.426992	-270.464394	22.99	
C	-0.0572535019	 1.561669884	-0.1188564696	-0.410705
C	 0.0265051469	 0.0545752886	 0.0023435178	 0.010814
C	 1.3114774631	-0.6802162579	-0.1711803322	-0.297558
C	 0.6558818509	-0.6524056082	 1.2078085935	-0.095356
C	 1.3135370858	 0.1066949814	 2.2921007238	 0.164355
O	 1.2675431283	-0.194536234	 3.4604130806	-0.270789
H	 0.8739684535	 2.052509154	 0.1755240043	 0.123476
H	-0.2609625868	 1.8437013574	-1.1573817159	 0.125363
H	-0.8619370511	 1.9688194638	 0.5020582391	 0.129431
H	-0.8582579441	-0.4626739268	-0.359254214	 0.102111
H	 1.3279071158	-1.631108854	-0.691051607	 0.127734
H	 2.2153801005	-0.0893710469	-0.289792257	 0.122559
H	 0.1661740124	-1.5570821519	 1.5513036377	 0.10559
H	 1.8903054668	 0.9995360303	 1.957307639	 0.062976
105.6793	201.9714	229.7459	281.1686	376.6408	434.636	507.5263	744.7713	842.4302	862.4585	904.1263	961.6717	1007.6191	1048.2988	1074.5108	1104.1215	1144.7086	1187.7976	1199.4564	1231.299	1343.5582	1401.3716	1422.5133	1448.3683	1487.3396	1495.0601	1506.948	1814.1693	2861.2733	3037.787	3097.7791	3113.7617	3128.5874	3145.3714	3177.6748	3218.1672
CC1CC1C=O	C[C@H]1C[C@H]1C=O	
InChI=1S/C5H8O/c1-4-2-5(4)3-6/h3-5H,2H2,1H3	InChI=1S/C5H8O/c1-4-2-5(4)3-6/h3-5H,2H2,1H3/t4-,5-/m0/s1
