13
gdb 3196	4.4153	3.6774	3.27631	1.746	52.39	-0.2464	-0.0014	0.2451	508.6929	0.104259	-344.436564	-344.431778	-344.430834	-344.464814	19.436	
C	-0.0028300445	 1.5574535121	 0.011827523	-0.076497
O	 1.3914366383	 1.8810672375	 0.0394887642	-0.274325
C	 2.0430395671	 0.5873426489	-0.0034809032	 0.135594
O	 1.1973188898	-0.1797463	-0.8278735184	-0.228216
C	 0.0342039589	-0.0065045751	 0.0027671888	-0.026433
C	 0.5562116259	-0.4118092203	 1.3751933656	-0.088783
C	 1.8387285243	-0.0436544012	 1.3726620777	-0.073999
H	-0.5162320721	 1.9744506895	 0.8839819946	 0.104372
H	-0.4516002135	 1.9460447676	-0.9082825511	 0.111873
H	 3.0430352701	 0.6970773502	-0.4165804013	 0.096197
H	-0.8335754638	-0.5159570423	-0.4097513437	 0.09435
H	-0.0475082265	-0.7803346778	 2.192596578	 0.111498
H	 2.554356366	-0.0393681291	 2.1822220258	 0.11437
294.4209	412.0167	505.1865	634.6322	718.1666	736.9017	816.1918	843.6893	853.7008	868.0431	905.7562	925.7179	937.5517	975.1469	1009.1285	1048.7718	1074.5133	1149.6216	1188.9327	1239.2131	1265.2431	1279.1132	1331.6161	1336.5656	1353.0751	1510.9308	1633.4154	3038.5752	3088.6929	3153.3497	3160.6904	3224.9613	3250.8355
C1OC2OC1C=C2	C1O[C@@H]2O[C@H]1C=C2	
InChI=1S/C5H6O2/c1-2-5-6-3-4(1)7-5/h1-2,4-5H,3H2	InChI=1S/C5H6O2/c1-2-5-6-3-4(1)7-5/h1-2,4-5H,3H2/t4-,5+/m0/s1
