15
gdb 4972	3.27376	2.30568	1.36442	1.2072	70.72	-0.2271	-0.0158	0.2113	865.3144	0.120302	-362.731014	-362.724002	-362.723058	-362.761956	26.785	
C	 0.0240626309	 1.4979461483	 0.0299222138	-0.522951
C	 0.0222513571	-0.010375908	 0.0230093719	 0.222237
N	-0.0499219651	-0.6245386727	-1.1607963061	-0.303712
C	-0.0533039909	-1.9587840314	-1.1961733977	-0.02309
C	 0.0151317921	-2.749124121	-0.0532030412	-0.114763
C	 0.090553277	-2.1237653312	 1.1843901465	-0.155055
C	 0.0943209574	-0.7336746791	 1.2262242566	 0.306134
O	 0.1685093225	-0.1287825357	 2.4447925136	-0.435787
H	 0.9385568012	 1.9073133798	 0.4804359957	 0.128919
H	-0.0364645528	 1.8571313724	-0.9978246433	 0.153688
H	-0.8301492588	 1.9089328674	 0.5851339986	 0.128988
H	-0.113329965	-2.4129010466	-2.1816705772	 0.102983
H	 0.0095377026	-3.8307693069	-0.1297072071	 0.100476
H	 0.1461739456	-2.682016827	 2.1123119178	 0.111496
H	 0.1619515562	 0.8263083419	 2.3265469281	 0.300437
145.3059	166.1792	285.6587	300.4407	333.4056	448.1189	462.0056	539.265	569.5704	592.1164	753.761	755.6952	833.2036	873.3404	943.5565	976.773	980.3775	1054.8719	1080.9146	1130.2237	1174.2056	1251.1735	1282.2499	1314.1653	1352.5623	1399.4693	1473.904	1484.3424	1488.6904	1509.9279	1615.812	1645.6764	3006.6769	3052.839	3145.4771	3160.1237	3189.0234	3204.4565	3830.7765
CC1=NC=CC=C1O	Cc1ncccc1O	
InChI=1S/C6H7NO/c1-5-6(8)3-2-4-7-5/h2-4,8H,1H3	InChI=1S/C6H7NO/c1-5-6(8)3-2-4-7-5/h2-4,8H,1H3
