19
gdb 2576	2.74063	2.56635	1.65444	1.2836	67.36	-0.261	0.0729	0.3339	843.7051	0.170653	-310.905485	-310.897107	-310.896162	-310.938066	30.712	
C	 0.2290107312	-1.0306126948	 1.8525318244	-0.382293
C	 0.0098654074	-0.4756034848	 0.4396165726	-0.250185
C	-1.4014342475	-0.671739413	-0.0972933777	 0.404389
C	-2.4914295512	 0.0789325937	 0.6331184898	-0.149912
O	-2.2190983933	 1.47303319	 0.5400552677	-0.423263
C	-1.5771782568	-0.8408242562	-1.5865215	-0.30506
C	-1.7722161659	-2.0214625794	-0.6662421504	-0.315678
H	 1.2732869809	-0.9134478282	 2.1587473251	 0.109817
H	-0.3868016643	-0.5098621815	 2.5927574523	 0.116045
H	-0.0185017534	-2.0965226555	 1.9031113896	 0.112458
H	 0.2422659106	 0.5948944332	 0.4244185264	 0.115172
H	 0.7144107052	-0.9584284358	-0.2483961629	 0.086498
H	-3.4671294919	-0.1647306684	 0.1828123664	 0.077496
H	-2.5313870966	-0.2412085406	 1.6861290968	 0.085609
H	-2.8308174597	 1.9367550471	 1.1190888858	 0.285451
H	-2.4543034022	-0.402595266	-2.0506385093	 0.111036
H	-0.6892559923	-0.8186607745	-2.2093668857	 0.108331
H	-1.0123368713	-2.7960377487	-0.6588064116	 0.108576
H	-2.7806033089	-2.3931406566	-0.514531809	 0.105516
59.0397	123.2189	203.2515	228.5987	245.1976	267.964	338.1317	357.865	430.4648	540.1409	699.6925	775.1991	792.7341	886.8105	918.4666	939.4128	942.7994	1015.459	1035.1245	1049.8895	1069.228	1078.0654	1102.2126	1115.5427	1186.1836	1239.5814	1242.5439	1281.5492	1334.4817	1357.028	1388.6776	1409.488	1462.507	1469.6448	1482.7184	1497.4385	1504.9456	1507.0752	1523.8671	2964.8476	2993.5989	3030.137	3033.3917	3070.2333	3101.9292	3103.8758	3124.8539	3132.0395	3202.1988	3217.856	3830.8348
CCC1(CO)CC1	CCC1(CO)CC1	
InChI=1S/C6H12O/c1-2-6(5-7)3-4-6/h7H,2-5H2,1H3	InChI=1S/C6H12O/c1-2-6(5-7)3-4-6/h7H,2-5H2,1H3
