12
gdb 879	6.70299	2.129	1.61579	0.4363	51.65	-0.1637	0.0726	0.2363	700.6426	0.09023	-360.536972	-360.53016	-360.529215	-360.567257	25.03	
O	 0.0341268529	 1.3409249121	 0.2115363828	-0.43929
C	 0.0592819431	-0.0015723438	-0.0096314892	 0.364305
C	 0.0816174054	-0.7836089193	-1.1295188384	-0.282157
C	 0.1022910761	-2.156318337	-0.6800859507	-0.282156
C	 0.0911994146	-2.1250643701	 0.6856107841	 0.364303
O	 0.100888449	-3.077017792	 1.6579987482	-0.43929
N	 0.0647928052	-0.8139802558	 1.1000263177	-0.332459
H	 0.0329555196	 1.782842398	-0.6424997193	 0.305043
H	 0.0833909735	-0.4397884445	-2.1520130261	 0.083496
H	 0.1226664612	-3.0379803895	-1.3013482459	 0.083496
H	 0.1146122464	-3.9382959457	 1.2305858234	 0.305044
H	 0.0524302531	-0.5014837725	 2.0550579633	 0.269664
179.3172	192.5755	220.2585	319.6852	331.7043	372.8722	480.9993	613.4639	630.4255	669.7091	708.5426	712.8901	728.2768	1007.376	1017.1031	1053.7602	1156.4645	1170.3903	1236.1457	1288.3923	1320.0745	1507.5677	1529.1286	1616.4931	1652.647	3241.6744	3255.0029	3689.6522	3851.5508	3852.3752
OC1=CC=C(O)N1	Oc1ccc(O)[nH]1	
InChI=1S/C4H5NO2/c6-3-1-2-4(7)5-3/h1-2,5-7H	InChI=1S/C4H5NO2/c6-3-1-2-4(7)5-3/h1-2,5-7H
