14
gdb 3087	3.71811	2.33391	1.99658	4.0978	58.47	-0.2312	0.0328	0.2639	700.5834	0.114855	-320.742924	-320.73563	-320.734686	-320.774012	26.523	
N	 0.0520061105	 1.4466948699	 0.1277056662	-0.513015
C	 0.0041677508	 0.0292989549	-0.0032411876	 0.017519
C	-1.3277601228	-0.6587157744	 0.0335896539	-0.035948
N	-2.4854890028	 0.1880842651	 0.0650306976	-0.505055
C	-0.5303968916	-0.6910298875	-1.2721832576	-0.232168
C	-0.9541062274	 0.0935819626	-2.3896578385	 0.294391
N	-1.2708253163	 0.7306190811	-3.3032064706	-0.34674
H	 0.7558583312	 1.8526894586	-0.4800368415	 0.241266
H	-0.8499235067	 1.8396615079	-0.1261442572	 0.254888
H	 0.8329364924	-0.4903866961	 0.4690897794	 0.110188
H	-1.3660541265	-1.6201734536	 0.5479508984	 0.092575
H	-3.2541109639	-0.2105921333	-0.4627814736	 0.248504
H	-2.7986947004	 0.3352117914	 1.0183804411	 0.245656
H	-0.0731223765	-1.6388876865	-1.535637	 0.12794
114.234	145.8868	192.3782	260.0547	343.702	363.81	404.0882	562.2677	612.6959	666.8059	710.0099	795.5311	833.1938	871.5948	926.9627	985.2815	998.9515	1107.0058	1113.4251	1178.6715	1244.8489	1259.7543	1288.5022	1361.035	1393.6188	1455.0135	1645.6654	1653.9481	2345.8742	3079.6029	3149.5442	3169.117	3498.387	3511.8204	3579.4361	3592.7685
NC1C(N)C1C#N	N[C@H]1[C@@H](N)[C@H]1C#N	
InChI=1S/C4H7N3/c5-1-2-3(6)4(2)7/h2-4H,6-7H2	InChI=1S/C4H7N3/c5-1-2-3(6)4(2)7/h2-4H,6-7H2/t2-,3+,4-
