12
gdb 3212	3.69575	3.28579	2.0828	4.3094	50.41	-0.2317	-0.0296	0.202	611.4228	0.090224	-360.468392	-360.462422	-360.461478	-360.498209	22.182	
O	 0.0105139911	 1.4331272734	 0.1623017059	-0.424416
C	 0.0220392413	 0.0484907345	 0.0215981692	 0.035892
C	-1.3273291418	-0.6954220316	 0.0264430894	-0.079934
N	-2.0379057432	-0.1324866891	-1.1269044024	-0.350919
C	-1.0867459247	-1.2865069786	-1.3347006419	-0.186939
C	 0.2701082566	-0.6186373776	-1.3940457501	 0.406379
O	 1.2106166831	-0.6859042505	-2.1260274524	-0.298274
H	-0.6793961771	 1.7574952456	-0.4318213424	 0.297535
H	 0.7414383551	-0.3603732823	 0.7386909372	 0.11729
H	-1.8473555219	-1.1426882282	 0.863269768	 0.11412
H	-2.9779676837	-0.5253166464	-1.1552630537	 0.247477
H	-1.4336242547	-2.2156992991	-1.7671271868	 0.12179
120.3264	227.7556	258.9108	457.4655	495.9441	556.5623	635.9313	710.748	789.923	827.6648	860.9468	895.2306	945.1893	990.223	1042.067	1084.2224	1092.6355	1146.5075	1168.3796	1253.6977	1302.2076	1310.3454	1347.4789	1434.1522	1904.0966	3074.5789	3204.3364	3215.7931	3483.5474	3766.7418
OC1C2NC2C1=O	O[C@H]1[C@H]2N[C@H]2C1=O	
InChI=1S/C4H5NO2/c6-3-1-2(5-1)4(3)7/h1-3,5-6H	InChI=1S/C4H5NO2/c6-3-1-2(5-1)4(3)7/h1-3,5-6H/t1-,2+,3-/m0/s1
