13
gdb 2606	3.62284	2.61353	1.77813	3.1179	50.97	-0.2628	-0.0523	0.2106	699.9619	0.099916	-381.567301	-381.560304	-381.559359	-381.598325	24.752	
O	 0.1712946203	 1.3370696114	 0.3063003309	-0.417874
C	 0.0714302823	-0.0338061566	-0.0041851229	-0.141921
C	-1.361958621	-0.5296681701	-0.0408367094	 0.287004
C	-1.6832437942	-1.9566906743	 0.1811913772	-0.22201
O	-1.959156667	-0.9967776472	 1.1835824611	-0.249153
C	-2.3277777551	 0.2520463833	-0.8735860504	 0.126491
O	-2.0037846313	 1.1655875434	-1.5945890266	-0.269373
H	-0.2515413689	 1.8117393555	-0.4201469303	 0.300505
H	 0.5432851736	-0.2710785193	-0.9710288511	 0.10273
H	 0.6082196912	-0.5823990353	 0.775554115	 0.12231
H	-2.5510304566	-2.40603319	-0.3007222184	 0.126398
H	-0.8566275983	-2.6364969354	 0.3849614768	 0.133007
H	-3.3860832852	-0.0669459153	-0.762732762	 0.101885
115.5148	139.3832	210.984	279.079	334.8419	374.1751	483.2821	530.216	534.9148	785.1376	843.8697	889.6019	951.041	992.7041	1045.0319	1093.4841	1134.6298	1162.0172	1213.2195	1316.8655	1338.5264	1382.0912	1424.8122	1448.6165	1482.3802	1521.4234	1808.314	2916.1141	2982.0382	3080.5142	3088.9013	3169.4869	3784.8605
OCC1(CO1)C=O	OC[C@]1(CO1)C=O	
InChI=1S/C4H6O3/c5-1-4(2-6)3-7-4/h1,6H,2-3H2	InChI=1S/C4H6O3/c5-1-4(2-6)3-7-4/h1,6H,2-3H2/t4-/m0/s1
