12
gdb 3659	3.6429	3.53815	1.82407	3.9411	53.06	-0.2287	-0.0301	0.1986	652.8042	0.089955	-356.676972	-356.670229	-356.669285	-356.707806	23.379	
C	 0.1035031696	 1.5359763386	 0.0270839185	-0.499686
C	-0.0278817283	 0.0590967376	-0.0297228811	 0.373046
C	-1.0959466908	-0.7868135712	 0.0570982559	 0.159893
N	-2.4499310134	-0.5071481761	 0.2659657961	-0.602054
N	-0.601590794	-2.0667028653	-0.0371504241	-0.170598
N	 0.6549763895	-2.0486013753	-0.1705561249	-0.021555
O	 1.0687830976	-0.6963385448	-0.1936639525	-0.207896
H	 0.9308676191	 1.8268000928	 0.680936713	 0.156401
H	 0.2960420376	 1.9666443076	-0.9622405759	 0.149787
H	-0.8210015634	 1.9685132172	 0.4174456159	 0.150627
H	-2.8728507662	 0.0026592693	-0.5006687632	 0.253274
H	-2.9672977671	-1.3658850705	 0.4107522322	 0.258762
103.4175	121.0082	239.1138	243.9268	327.472	438.5045	651.9562	656.5195	713.8795	725.6739	757.8428	803.0829	988.7785	1030.3782	1065.3276	1102.9599	1263.2424	1268.6851	1398.6147	1431.9968	1445.6923	1477.6143	1487.8029	1651.4751	1686.1369	3036.6741	3097.2135	3130.3657	3527.4398	3612.9806
CC1=C(N)N=NO1	Cc1c(N)nno1	
InChI=1S/C3H5N3O/c1-2-3(4)5-6-7-2/h4H2,1H3	InChI=1S/C3H5N3O/c1-2-3(4)5-6-7-2/h4H2,1H3
