11
gdb 4413	4.12763	2.10024	1.39197	5.7828	56.11	-0.2653	-0.0577	0.2076	790.9731	0.073619	-430.794203	-430.787629	-430.786685	-430.825104	23.632	
N	 0.0276516391	 1.3179100481	 0.0074926767	-0.549605
C	-0.0406585187	-0.017981166	 0.0009793928	 0.540366
N	-1.2046502794	-0.6316682435	 0.0041456155	-0.358197
C	-1.1007908642	-1.9778205028	-0.0030362388	 0.088808
N	-0.0222840013	-2.7200874513	-0.0130252631	-0.33157
C	 1.1846764714	-2.096636556	-0.0163792536	 0.453847
O	 2.2817905312	-2.552157308	-0.02485701	-0.315032
O	 1.1357383549	-0.6201754584	-0.0084735762	-0.243935
H	 0.9196147213	 1.781119957	 0.0051025864	 0.288425
H	-0.828794017	 1.844134837	 0.0148185571	 0.290302
H	-2.0500968074	-2.5114040661	-0.0014274168	 0.136592
112.7627	166.286	234.9838	326.5085	427.9082	524.6365	546.9058	572.3908	575.7983	718.1662	771.8412	811.2339	891.5423	961.4354	1031.6236	1039.3452	1092.3004	1334.8555	1412.722	1469.1937	1543.8949	1623.4419	1668.6836	1920.0196	3153.8336	3622.3081	3760.4963
NC1=NC=NC(=O)O1	Nc1ncnc(=O)o1	
InChI=1S/C3H3N3O2/c4-2-5-1-6-3(7)8-2/h1H,(H2,4,5,6,7)	InChI=1S/C3H3N3O2/c4-2-5-1-6-3(7)8-2/h1H,(H2,4,5,6,7)
