13
gdb 4283	4.05253	1.88211	1.28522	4.5035	65.3	-0.2139	-0.0204	0.1935	870.3946	0.09711	-398.628385	-398.621858	-398.620914	-398.658955	25.047	
O	 0.0434039794	 1.3298284505	 0.0079274389	-0.406832
C	-0.0417674294	-0.0073336136	 0.0010001847	 0.475063
C	-1.1953098988	-0.6945051305	 0.0036119797	-0.304166
C	-1.1973708595	-2.1493159106	-0.0044350506	 0.305815
N	-2.3033658095	-2.8094065898	-0.0019488875	-0.544109
C	 0.1547476948	-2.7248868569	-0.0151226154	-0.224409
C	 1.2422569601	-1.9503964581	-0.0168847941	 0.054702
O	 1.1907851926	-0.5831528783	-0.0090468327	-0.246387
H	 0.9770596527	 1.5746369273	 0.0041059927	 0.310271
H	-2.1339683347	-0.1581262006	 0.0118056228	 0.124489
H	-2.1132868881	-3.8136208201	-0.0085594024	 0.201165
H	 0.2795761369	-3.8019471771	-0.0217627583	 0.112123
H	 2.2675532135	-2.2950383523	-0.0244838979	 0.142274
155.1715	198.7128	304.9846	355.2302	410.2232	471.9831	522.7512	556.2784	656.4065	708.9283	768.3183	792.3097	861.0929	887.5945	919.5137	944.5886	952.242	1061.7603	1154.1086	1191.5667	1263.7535	1290.1443	1336.9748	1422.2398	1443.1394	1639.8891	1684.8273	1757.2025	3195.1422	3234.5108	3235.4743	3442.668	3806.6773
OC1=CC(=N)C=CO1	O[C@H]1C=C([NH])C=CO1	
InChI=1S/C5H5NO2/c6-4-1-2-8-5(7)3-4/h1-3,6-7H	InChI=1S/C5H6NO2/c6-4-1-2-8-5(7)3-4/h1-3,5-7H/t5-/m1/s1
