19
gdb 1082	4.39373	1.35983	1.35982	0.1784	76.21	-0.2404	0.0683	0.3086	1045.3699	0.168385	-273.775864	-273.766335	-273.765391	-273.810583	33.532	
C	-0.0178512834	 1.4792209449	 0.0102823301	-0.496118
C	 0.0017132268	 0.0226571296	 0.0020915631	-0.027426
C	 0.0179392959	-1.1819367421	-0.0046371952	 0.14491
C	 0.0379221075	-2.6506017818	-0.0126339711	 0.084922
C	-1.4096691978	-3.183485569	-0.1082940844	-0.38958
C	 0.852680358	-3.1465348611	-1.2287462946	-0.38957
C	 0.6919367574	-3.1623150862	 1.2909013065	-0.389563
H	 0.5558583716	 1.8912759075	-0.8275357246	 0.144826
H	-1.0402535952	 1.8655829306	-0.0690052181	 0.144825
H	 0.4147661349	 1.879450291	 0.934150833	 0.144827
H	-1.8946111881	-2.8335336917	-1.0240659186	 0.11786
H	-1.410169545	-4.2790642044	-0.1150994581	 0.106922
H	-2.0073393188	-2.8444451088	 0.7426481313	 0.117871
H	 1.8826087992	-2.7811704503	-1.1836539983	 0.117863
H	 0.8760573884	-4.2417242384	-1.2476602779	 0.106921
H	 0.4092026492	-2.7956554139	-2.1649494615	 0.117864
H	 0.1326088272	-2.8230578761	 2.1674497817	 0.117859
H	 0.7138814216	-4.2576699357	 1.2988462131	 0.106918
H	 1.7188360905	-2.7969646143	 1.3817925534	 0.117869
18.321	113.1543	113.1905	216.0352	271.216	271.9686	288.5241	288.5764	347.133	363.0163	363.1606	548.4894	548.5629	624.1639	832.2274	929.7345	929.9519	963.5816	1046.0439	1046.1135	1056.7551	1056.7922	1078.1456	1223.7182	1223.8247	1295.5843	1393.7441	1393.8351	1414.8503	1426.7619	1474.1229	1479.6888	1479.7119	1485.1379	1485.2163	1498.1239	1498.2882	1517.924	2365.87	3023.6986	3029.6041	3029.6862	3036.5788	3083.091	3083.1489	3101.222	3101.298	3107.8712	3112.1903	3116.4289	3116.4434	18.3597	113.1548	113.191	216.035	271.2157	271.9685	288.523	288.5752	347.133	363.0157	363.16	548.4884	548.5619	624.1639	832.2274	929.7346	929.952	963.5816	1046.0438	1046.1134	1056.7548	1056.7919	1078.1454	1223.7181	1223.8248	1295.5844	1393.7442	1393.8351	1414.8499	1426.7619	1474.1231	1479.6878	1479.711	1485.1381	1485.2162	1498.124	1498.2884	1517.924	2365.8693	3023.6986	3029.6041	3029.6862	3036.5788	3083.0911	3083.149	3101.222	3101.2979	3107.8712	3112.1904	3116.429	3116.4434
CC#CC(C)(C)C	CC#CC(C)(C)C	
InChI=1S/C7H12/c1-5-6-7(2,3)4/h1-4H3	InChI=1S/C7H12/c1-5-6-7(2,3)4/h1-4H3
