11
gdb 3808	8.24573	2.21297	1.76417	0.4985	47.94	-0.2578	-0.0273	0.2305	658.1738	0.080364	-372.726782	-372.72087	-372.719926	-372.756807	20.157	
C	-0.001099624	 1.3755096185	-0.0146294919	-0.238129
O	 0.019881824	-0.0557099785	-0.0336457794	-0.24336
C	 0.6175233252	-0.609033945	-1.0796617305	 0.509458
N	 0.7033335461	-1.9298199046	-1.2127181551	-0.309541
N	 1.3593856652	-2.0002329869	-2.3691727332	-0.054425
N	 1.6633412852	-0.843390049	-2.9203799581	-0.11178
N	 1.1928271923	 0.0716466721	-2.1032344003	-0.287539
H	 1.0151514393	 1.7799662509	-0.0075800498	 0.145054
H	-0.5331331649	 1.7689488753	-0.8855730804	 0.145061
H	-0.5232338849	 1.6472420824	 0.9027156805	 0.140648
H	 1.6083389964	-2.8796181653	-2.7963822417	 0.304552
103.0521	164.9643	246.3935	355.5809	523.328	566.1954	711.1387	728.5316	781.4074	1021.7122	1041.5825	1100.4818	1159.0026	1181.36	1190.8773	1217.3083	1280.2036	1367.7636	1458.5902	1483.6402	1497.7514	1512.9404	1610.6849	3043.9166	3116.5165	3158.1621	3652.8057
COC1=NNN=N1	COc1n[nH]nn1	
InChI=1S/C2H4N4O/c1-7-2-3-5-6-4-2/h1H3,(H,3,4,5,6)	InChI=1S/C2H4N4O/c1-7-2-3-5-6-4-2/h1H3,(H,3,4,5,6)
