9
gdb 771	9.79231	3.875	2.78226	1.8006	39.9	-0.2447	-0.0138	0.2309	430.7491	0.06371	-317.409527	-317.404846	-317.403902	-317.437319	16.859	
N	 0.0184396089	 1.3600589001	 0.1538523088	-0.577998
C	-0.0193459667	-0.0028675257	 0.043022982	 0.430521
N	-1.1323886584	-0.7004848222	-0.0111821026	-0.213954
O	-0.6589117606	-2.0327735674	-0.0434943908	-0.156075
C	 0.6652667964	-1.9546354068	-0.0159461959	 0.125663
N	 1.1421628247	-0.7527482443	 0.0364391431	-0.312331
H	 0.8709479162	 1.7802593799	-0.1821355253	 0.270049
H	-0.8237820247	 1.8397386889	-0.1247422543	 0.269828
H	 1.2152804943	-2.8844474126	-0.0390830349	 0.164295
296.7626	351.3163	425.3154	548.9782	609.494	734.6048	778.2109	908.823	911.8268	972.3247	1009.0121	1122.9862	1173.4767	1313.6503	1421.8849	1551.6933	1619.871	1663.5605	3262.5864	3589.1136	3699.8183
NC1=NOC=N1	Nc1nocn1	
InChI=1S/C2H3N3O/c3-2-4-1-6-5-2/h1H,(H2,3,5)	InChI=1S/C2H3N3O/c3-2-4-1-6-5-2/h1H,(H2,3,5)
