16
gdb 1476	3.96202	1.80224	1.32496	4.4834	61.49	-0.2684	0.0366	0.305	908.6332	0.134922	-325.787515	-325.779097	-325.778153	-325.820648	28.7	
C	-0.007962615	 1.4136359699	-0.0478949763	-0.240127
O	-0.0106087188	 0.0075263876	 0.0725940727	-0.239552
C	-1.2919556993	-0.5907628661	 0.0315581611	 0.141267
C	-1.803233561	-0.7654735646	-1.4002470609	-0.406104
C	-1.1420526534	-1.9527675803	 0.7335894802	-0.346694
C	-0.7949375396	-1.8182135808	 2.1463113449	 0.268778
N	-0.54156266	-1.710535519	 3.2682318333	-0.308601
H	 1.0277614986	 1.7399251321	 0.0687652339	 0.136872
H	-0.3727922034	 1.7535225113	-1.0279019581	 0.107822
H	-0.6193095025	 1.8857230109	 0.735465252	 0.115882
H	-2.0055576004	 0.0221562141	 0.6048072699	 0.086015
H	-2.7971475468	-1.2239698938	-1.4076542138	 0.120888
H	-1.8797705121	 0.2002234282	-1.9066113234	 0.127314
H	-1.1197332875	-1.3989222133	-1.9743532745	 0.129234
H	-2.0728706711	-2.5231639621	 0.650049025	 0.14797
H	-0.3571009679	-2.5241665041	 0.2260158941	 0.159036
66.4649	83.9664	146.4191	197.3874	218.9486	288.3019	329.3541	392.459	416.6083	478.783	579.1553	816.5107	884.4527	909.9175	969.1041	1068.5727	1113.5851	1118.0543	1167.721	1182.971	1208.6767	1269.3248	1310.546	1379.9584	1385.1191	1406.6234	1453.135	1479.7712	1483.2457	1493.4809	1499.2287	1510.315	2366.7755	2979.1573	2987.2956	3035.0014	3041.3687	3052.8279	3097.1324	3113.7396	3119.9564	3122.7067
COC(C)CC#N	CO[C@@H](C)CC#N	
InChI=1S/C5H9NO/c1-5(7-2)3-4-6/h5H,3H2,1-2H3	InChI=1S/C5H9NO/c1-5(7-2)3-4-6/h5H,3H2,1-2H3/t5-/m0/s1
