12
gdb 379	7.18808	2.28721	1.83758	4.5745	46.66	-0.2619	0.0215	0.2834	634.7561	0.096396	-302.545112	-302.538187	-302.537242	-302.575574	23.603	
N	-0.093638552	 1.4722203631	 0.0132332709	-0.506163
C	 0.0216237897	 0.0143341492	-0.0204064557	-0.101599
C	 0.7007540328	-0.5540200411	-1.2836461915	-0.081222
O	-0.0780779234	-0.0959466448	-2.3738236546	-0.420775
C	 0.7267223783	-0.4673396378	 1.1741729725	 0.280183
N	 1.3118399379	-0.8594503656	 2.0895897201	-0.313619
H	 0.8332799795	 1.8880942433	 0.0573747833	 0.236612
H	-0.5013150679	 1.7612890164	-0.8719939634	 0.250458
H	-0.9964715106	-0.3955076638	 0.0059318878	 0.144056
H	 1.7366245264	-0.1856797872	-1.3341186706	 0.102212
H	 0.7293883276	-1.6522621848	-1.2307295822	 0.110859
H	 0.3548406518	-0.3526968869	-3.1927500265	 0.298998
127.2313	165.4826	208.4912	242.4505	280.4732	346.8286	462.493	542.5269	577.8733	842.1328	895.0016	955.3269	1055.7945	1088.8757	1149.9008	1201.6787	1221.666	1271.5094	1331.5495	1413.444	1446.1956	1515.5737	1660.8017	2366.4808	2983.3105	3020.5929	3042.1527	3485.133	3569.3794	3842.7766
NC(CO)C#N	N[C@@H](CO)C#N	
InChI=1S/C3H6N2O/c4-1-3(5)2-6/h3,6H,2,5H2	InChI=1S/C3H6N2O/c4-1-3(5)2-6/h3,6H,2,5H2/t3-/m1/s1
