9
gdb 3817	9.8387	2.01251	1.67076	6.2918	51.18	-0.2855	-0.0401	0.2453	652.2035	0.057746	-334.424572	-334.419394	-334.41845	-334.453624	18.221	
N	 0.0488954092	-1.1414113646	-0.0041689148	-0.326245
C	 0.0155077647	 0.0149255481	 0.0026152133	 0.241526
C	-0.0546028525	 1.4312976585	 0.0112956702	 0.22951
C	-1.178258895	 2.2316593386	 0.0308122953	-0.153614
N	-0.6748342927	 3.4796693701	 0.0308906781	-0.147364
N	 0.6772160564	 3.4738870438	 0.0125424299	-0.087932
N	 1.0572401948	 2.2381430163	 0.0006340015	-0.234345
H	-2.2315265014	 2.0103968508	 0.0438229362	 0.179249
H	-1.1644117634	 4.3613079084	 0.0423537903	 0.299214
181.8644	185.6725	517.0288	561.8304	585.1382	606.287	694.521	736.2026	829.6577	980.8224	1031.1047	1032.3456	1130.2572	1255.4559	1307.1186	1350.8381	1486.9636	1564.0776	2362.6205	3296.5016	3651.1377
N#CC1=CNN=N1	N#Cc1c[nH]nn1	
InChI=1S/C3H2N4/c4-1-3-2-5-7-6-3/h2H,(H,5,6,7)	InChI=1S/C3H2N4/c4-1-3-2-5-7-6-3/h2H,(H,5,6,7)
