17
gdb 2969	4.23496	1.93049	1.42276	0.6542	69.83	-0.2568	0.0558	0.3126	875.8543	0.146825	-272.539307	-272.531433	-272.530489	-272.571161	29.226	
C	 0.1035251243	 1.4200629165	 0.0998650952	-0.387278
C	-0.0843682125	-0.1057016869	-0.0269857305	-0.1771
C	-1.5050502325	-0.460313058	-0.0225570931	 0.339322
C	-2.6756262334	-0.7345746367	-0.036141811	-0.476502
C	 0.6133221179	-0.6532532151	-1.2678094286	 0.052877
C	 2.0875397388	-0.9637145579	-1.2234733743	-0.279075
C	 1.0772798937	-2.0828706988	-1.3156319078	-0.266367
H	 1.1688915481	 1.6658575101	 0.1343392076	 0.11696
H	-0.3415928165	 1.9339159707	-0.7574520299	 0.124634
H	-0.3747839935	 1.7994444738	 1.0066185763	 0.122988
H	 0.3829452474	-0.5781825014	 0.8492523127	 0.098367
H	-3.7069179812	-0.9865737898	-0.0405805895	 0.192276
H	 0.2319463464	-0.2389040086	-2.1972327917	 0.089242
H	 2.6908682757	-0.7361043264	-2.0952214224	 0.111971
H	 2.6063541727	-0.8284098021	-0.2794628391	 0.109967
H	 0.9175701705	-2.6951602663	-0.4340717373	 0.114714
H	 0.9875316342	-2.6234011131	-2.2511214966	 0.113003
78.1102	140.8624	201.6241	233.1279	237.0232	340.4166	412.878	504.7531	551.9723	624.9031	629.7344	751.0406	809.4791	830.6371	870.3928	941.2667	955.727	990.9854	1057.2801	1075.905	1085.5054	1110.2724	1137.7889	1195.8356	1204.3578	1225.8005	1294.309	1324.3839	1399.0948	1412.8289	1470.776	1491.6339	1498.026	1506.9128	2233.3352	2999.0104	3041.535	3115.8835	3121.531	3128.148	3134.1298	3144.2093	3206.6761	3222.219	3506.2454
CC(C#C)C1CC1	C[C@@H](C#C)C1CC1	
InChI=1S/C7H10/c1-3-6(2)7-4-5-7/h1,6-7H,4-5H2,2H3	InChI=1S/C7H10/c1-3-6(2)7-4-5-7/h1,6-7H,4-5H2,2H3/t6-/m0/s1
