10
gdb 238	9.72555	2.25446	1.8741	6.7117	43.68	-0.2741	0.0051	0.2792	603.7082	0.072367	-301.394865	-301.38819	-301.387246	-301.426589	21.668	
N	-0.0760842279	 1.3398654342	-0.0726555085	-0.526414
C	 0.0915155526	-0.0000844202	 0.1086374322	 0.430712
O	 1.1627077978	-0.5243790142	 0.3005888727	-0.321858
C	-1.2380829382	-0.7858674199	 0.1008744726	-0.464269
C	-1.0452297812	-2.2156432705	-0.1035166337	 0.295891
N	-0.9345910813	-3.351860197	-0.2735298822	-0.296004
H	 0.7467810826	 1.9202780374	-0.0840490784	 0.273612
H	-0.9590405591	 1.7529160228	-0.3158744486	 0.265352
H	-1.7331970706	-0.6256560448	 1.0665319221	 0.182793
H	-1.9164666247	-0.4007100678	-0.6685858783	 0.160187
16.6214	155.4168	156.9819	365.4989	379.2511	449.6404	499.0008	619.2182	662.6813	822.0066	949.0989	986.9716	1091.9113	1221.1592	1271.7632	1374.984	1446.878	1622.3536	1827.9562	2379.2083	3041.7808	3081.6271	3604.7461	3738.8479
NC(=O)CC#N	NC(=O)CC#N	
InChI=1S/C3H4N2O/c4-2-1-3(5)6/h1H2,(H2,5,6)	InChI=1S/C3H4N2O/c4-2-1-3(5)6/h1H2,(H2,5,6)
