14
gdb 3630	4.52563	4.51184	3.32929	1.8073	58.21	-0.2228	0.0788	0.3016	493.7569	0.116555	-287.379629	-287.375147	-287.374203	-287.407453	19.09	
C	-0.011325993	 1.5608126607	-0.0719742942	-0.239286
C	 1.473303079	 1.8363047426	 0.0560728493	-0.07573
C	 2.2877394405	 0.7092526006	-0.5696079218	-0.109387
C	 2.0949717221	 0.7716309402	 0.9204448818	-0.013511
N	 1.1468340709	-0.4113538838	 0.9222884959	-0.160812
C	 0.0449934263	 0.0526227828	 0.0181725154	-0.044919
C	 1.3045418384	-0.4722328688	-0.5682232038	-0.042267
H	-0.5902624951	 2.0052086033	 0.7446244755	 0.10948
H	-0.4318339808	 1.8976644945	-1.0256421204	 0.107163
H	 1.8835486316	 2.8381281729	 0.0664088959	 0.09159
H	 3.1690382629	 0.8409291196	-1.180315104	 0.092718
H	 2.7769238162	 0.9225638882	 1.7460130399	 0.0965
H	-0.8520862662	-0.5551984212	 0.0543846879	 0.095167
H	 1.4182145472	-1.4143347515	-1.0914553273	 0.093294
393.6102	540.1572	697.6136	722.424	753.7381	764.5314	777.2024	837.6988	848.8887	897.6284	926.9343	957.0852	961.8567	986.2739	1017.283	1033.2141	1041.0692	1056.7322	1069.351	1091.8243	1162.6321	1186.9682	1237.2022	1251.6281	1284.7279	1298.465	1370.4524	1383.7763	1487.6257	3045.1925	3088.6582	3175.1635	3186.4953	3199.1345	3205.1717	3223.2391
C1C2C3C2N2C1C32	C1[C@@H]2[C@H]3[C@@H]2N2[C@@H]1[C@@H]32	
InChI=1S/C6H7N/c1-2-4-5(2)7-3(1)6(4)7/h2-6H,1H2	InChI=1S/C6H7N/c1-2-4-5(2)7-3(1)6(4)7/h2-6H,1H2/t2-,3+,4+,5-,6+,7?/m1/s1
