15
gdb 4177	3.522	1.83315	1.3643	1.7424	64.67	-0.2505	-0.0027	0.2478	891.6231	0.117305	-399.710753	-399.703247	-399.702303	-399.742412	28.026	
C	-0.0465785345	 1.6009966609	-0.0624633466	-0.407435
C	 0.0254218566	 0.080867744	 0.0089052379	-0.117726
C	 0.706945537	-0.6726825165	-1.1636021335	 0.023461
O	 2.0630720815	-0.2383965193	-1.2140459277	-0.236012
C	 1.7198222498	-1.2779536758	-0.2686969527	-0.086731
C	 1.0925644351	-0.5852353771	 0.8992697534	 0.441122
N	 1.3321755419	-0.6947093357	 2.1366209127	-0.261983
O	 0.4484980624	 0.0933597534	 2.8959706541	-0.389165
H	 0.9229358891	 2.0119119571	-0.3544137298	 0.136652
H	-0.794780817	 1.9204403638	-0.7955148907	 0.114782
H	-0.3196427904	 2.014363389	 0.9114679257	 0.138934
H	-0.9527923851	-0.354399546	 0.2467823293	 0.103138
H	 0.2652999254	-1.0636156775	-2.072414676	 0.112677
H	 2.2701012892	-2.2079775204	-0.3210845632	 0.118656
H	 0.744044319	-0.0800624898	 3.796388197	 0.309628
114.2582	167.1604	221.6589	228.4038	281.9255	353.7755	438.3592	477.9262	614.2757	632.6687	709.4289	772.9972	840.6153	849.4618	855.6553	959.9014	978.9724	1033.2472	1053.2342	1071.2282	1121.7107	1154.0342	1213.0333	1224.5788	1262.6245	1339.958	1356.3513	1402.484	1412.3656	1490.9266	1505.1886	1790.7511	3042.3107	3046.1063	3114.4208	3133.426	3192.9573	3217.115	3815.6154
CC1C2OC2C1=NO	C[C@H]1[C@H]2O[C@H]2C1=NO	
InChI=1S/C5H7NO2/c1-2-3(6-7)5-4(2)8-5/h2,4-5,7H,1H3	InChI=1S/C5H7NO2/c1-2-3(6-7)5-4(2)8-5/h2,4-5,7H,1H3/t2-,4-,5+/m1/s1
