17
gdb 2399	4.82894	2.10641	1.84174	1.2091	64.72	-0.2473	0.0807	0.328	755.6933	0.148287	-309.686187	-309.67914	-309.678196	-309.717038	26.827	
O	-0.1809149383	 1.4306448704	-0.0861743221	-0.419797
C	-0.0844067967	 0.0376104634	-0.0122025104	 0.048214
C	-0.5153680541	-0.6783702464	 1.2483638581	-0.403521
C	-1.371541375	-0.7221979681	 0.009708376	 0.363746
C	-2.7447052595	-0.0834533091	-0.2280905145	-0.282258
C	-2.9526480988	-1.0907926863	-1.39941792	-0.200792
C	-1.7245870805	-1.9078869147	-0.8964720268	-0.295398
H	 0.4912579952	 1.8074178287	 0.49083215	 0.287159
H	 0.7426537969	-0.3946081423	-0.5786235501	 0.079431
H	 0.0231813752	-1.5725026456	 1.548761687	 0.106976
H	-0.8652865342	-0.0581824066	 2.068753435	 0.109721
H	-3.4401077425	-0.2492427593	 0.6007587809	 0.095507
H	-2.7384537562	 0.9793368464	-0.4774347405	 0.116305
H	-3.9093710766	-1.6162764967	-1.4326480579	 0.095094
H	-2.7743242846	-0.6326259834	-2.3752582178	 0.106109
H	-0.9796859019	-2.2006101325	-1.6424599851	 0.095135
H	-2.0162022282	-2.7983690577	-0.3298997817	 0.098369
89.9169	192.2211	215.3217	275.3351	332.4475	438.7418	492.3319	556.9492	712.9736	780.9659	812.533	858.198	887.7848	899.0542	934.27	952.8044	999.5523	1029.4213	1073.7893	1097.1415	1142.9728	1169.2796	1191.4582	1221.7401	1229.3947	1253.1338	1268.456	1276.8016	1302.2969	1344.5175	1421.7942	1477.2868	1479.4935	1491.1209	1506.6815	3040.4318	3052.2613	3066.1238	3078.6397	3086.1851	3109.9612	3114.2282	3124.6582	3202.3899	3807.4714
OC1CC11CCC1	O[C@H]1CC21CCC2	
InChI=1S/C6H10O/c7-5-4-6(5)2-1-3-6/h5,7H,1-4H2	InChI=1S/C6H10O/c7-5-4-6(5)2-1-3-6/h5,7H,1-4H2/t5-/m0/s1
