14
gdb 641	7.74808	3.11668	2.80799	1.6374	53.44	-0.224	0.0811	0.3051	524.6466	0.119866	-270.394284	-270.388609	-270.387665	-270.423475	20.986	
C	 0.1210599393	 1.5679938554	 0.0666663862	-0.33039
C	 1.3152902502	 0.631867217	-0.0930628931	-0.330389
C	-0.0655652617	 0.0878982676	 0.0583361454	 0.474185
C	-0.6530648418	-0.8419166526	 1.1151342845	-0.35248
C	-1.3410842785	-1.5135135457	-0.0931986255	-0.067359
O	-0.7326982632	-0.5799766185	-1.0153408203	-0.302673
H	-0.0002240776	 2.1039887232	 1.0028212515	 0.112135
H	-0.2059873572	 2.1099447413	-0.8143315187	 0.124219
H	 1.7650797933	 0.5648763318	-1.0779636503	 0.124219
H	 2.0108022314	 0.5275955375	 0.7338450414	 0.112134
H	 0.0701512732	-1.4629559961	 1.6474249358	 0.112998
H	-1.3252295205	-0.3691985707	 1.8340206551	 0.112998
H	-1.036638002	-2.5454542518	-0.301603888	 0.105201
H	-2.4349132048	-1.4494711884	-0.114593304	 0.105201
76.1134	277.2826	300.9009	432.706	556.905	754.6774	783.1704	846.1206	865.1439	883.2439	914.1447	952.1581	1002.5454	1028.6402	1047.5366	1065.3441	1119.6548	1164.4674	1186.8087	1213.8107	1220.9685	1248.2294	1354.3773	1380.7829	1446.9078	1488.9067	1496.8498	1533.6356	3024.9558	3066.6945	3072.0979	3124.7838	3125.5205	3127.5324	3208.6318	3222.8866
C1CC11CCO1	C1CC21CCO2	
InChI=1S/C5H8O/c1-2-5(1)3-4-6-5/h1-4H2	InChI=1S/C5H8O/c1-2-5(1)3-4-6-5/h1-4H2
