16
gdb 1675	4.43577	1.81709	1.3579	5.082	56.64	-0.2497	0.0184	0.2681	880.8938	0.13681	-362.953848	-362.945957	-362.945013	-362.98614	28.225	
C	-0.1857300671	 1.6374330632	-0.1460647548	-0.394105
C	-0.124152306	 0.1091267295	-0.1276269457	-0.169452
C	 0.8229194622	-0.4765214656	-1.1828407538	-0.126441
N	 2.2539732243	-0.1673447443	-1.0043973527	-0.538182
H	 2.4830442662	-1.9643084094	-1.5329840851	 0.305316
H	 2.4966252568	 0.7267835707	-1.4141463889	 0.249672
H	 2.4875301036	-0.1164935753	-0.0164184797	 0.24406
C	 0.6480260383	-2.0090012951	-1.297477214	 0.43739
O	-0.417427103	-2.5587069115	-1.2055903371	-0.341878
O	 1.790314316	-2.6619031592	-1.5418236517	-0.370127
H	 0.7981087312	 2.0857439516	 0.0324282245	 0.10298
H	-0.5493786162	 2.0071081681	-1.111599406	 0.119397
H	-0.8615411505	 2.0117722409	 0.628055893	 0.124941
H	 0.1944813379	-0.2438227349	 0.8631287372	 0.098186
H	-1.1143845878	-0.3212808247	-0.298423917	 0.138956
H	 0.534615614	-0.0861777538	-2.168365968	 0.119286
72.0934	102.5236	195.631	232.2084	298.3468	315.0976	367.5857	417.6718	529.4577	589.6211	731.806	776.9307	845.8826	847.0957	884.8707	964.2851	1000.0299	1057.0204	1090.9277	1149.6742	1210.5571	1223.1354	1275.3351	1310.9321	1373.1139	1394.0853	1412.8601	1429.6148	1485.6524	1499.5455	1506.4688	1655.8632	1865.8605	3014.5261	3028.9279	3032.6886	3084.2667	3107.2445	3111.0571	3469.005	3501.7071	3591.6321
CCC([NH3+])C([O-])=O	CC[C@@H](N)C(=O)O	
InChI=1S/C4H9NO2/c1-2-3(5)4(6)7/h3H,2,5H2,1H3,(H,6,7)	InChI=1S/C4H9NO2/c1-2-3(5)4(6)7/h3H,2,5H2,1H3,(H,6,7)/t3-/m1/s1
