15
gdb 1563	5.38805	1.45248	1.21944	2.5129	54.72	-0.2645	-0.037	0.2275	956.5572	0.122452	-382.782183	-382.774032	-382.773087	-382.815136	27.505	
C	 0.6234763218	 1.3204092715	-0.0079252032	-0.228333
O	 0.7060869416	-0.0802260453	-0.1480830665	-0.239382
C	-0.2067033901	-0.596306248	-1.0879562827	-0.087848
C	-0.0203557704	-2.1211275013	-1.140069719	 0.032381
O	-1.00695974	-2.6984115491	-1.9460697891	-0.435315
C	 1.3623175679	-2.476175116	-1.651611003	 0.139013
O	 1.5070335925	-3.1917660616	-2.6150670904	-0.265394
H	 0.8486883511	 1.8377429868	-0.9531462584	 0.110684
H	-0.3766319487	 1.6348209947	 0.3273960664	 0.111704
H	 1.3591428108	 1.6168438354	 0.7430832148	 0.132114
H	-1.2482207881	-0.3828553702	-0.8024481441	 0.110732
H	-0.042740532	-0.1654064426	-2.0895368826	 0.099561
H	-0.0815158522	-2.4908412349	-0.101281001	 0.105068
H	-0.5246338936	-3.2037521843	-2.6204247891	 0.296153
H	 2.2176929694	-2.0425503752	-1.1025418522	 0.118863
73.0838	94.2334	142.4799	174.028	231.1396	304.3906	345.8169	413.4042	462.7403	500.8775	737.8162	837.1026	913.316	992.5532	1057.7968	1114.8441	1158.1316	1171.21	1184.3998	1226.3826	1230.7333	1292.0136	1319.6399	1383.2578	1405.3331	1447.6348	1480.5652	1485.905	1503.8203	1529.5104	1807.8537	2956.4687	2968.2002	2980.5141	2983.648	3011.1776	3026.1834	3120.4196	3681.6707
COCC(O)C=O	COC[C@@H](O)C=O	
InChI=1S/C4H8O3/c1-7-3-4(6)2-5/h2,4,6H,3H2,1H3	InChI=1S/C4H8O3/c1-7-3-4(6)2-5/h2,4,6H,3H2,1H3/t4-/m0/s1
