15
gdb 4349	3.69162	1.96989	1.29587	1.965	72.54	-0.2188	-0.0322	0.1866	911.6772	0.120805	-358.908156	-358.900909	-358.899965	-358.939632	27.229	
C	-0.0003168419	 1.4885619008	 0.0460906327	-0.471136
C	-0.0044475025	-0.0144212687	-0.0051326054	 0.317757
C	-0.1348762659	-0.7118293257	-1.2041990423	-0.086679
N	-0.1433702738	-2.0502676944	-1.2475784515	-0.225518
C	-0.0139960169	-2.6913225431	-0.0989749002	-0.066409
C	 0.1216328556	-1.9975723062	 1.1225361959	 0.353246
N	 0.3085919609	-2.6639665335	 2.3138145681	-0.56739
N	 0.1185415971	-0.6647217907	 1.1606854738	-0.365959
H	 0.9388579639	 1.853907727	 0.4741542371	 0.140142
H	-0.1228895766	 1.923267638	-0.9487851082	 0.123284
H	-0.8078801374	 1.8519754077	 0.6897025532	 0.138326
H	-0.2389439079	-0.1864039819	-2.1487837599	 0.100664
H	-0.0149721912	-3.7793463614	-0.1240071961	 0.097872
H	-0.0380472679	-3.6079645609	 2.3744022983	 0.255057
H	 0.1483087044	-2.1006560669	 3.1354065644	 0.256745
79.5379	189.399	221.3044	289.4762	382.5877	438.5251	467.2968	511.2235	560.9793	585.9898	631.0298	732.428	783.5215	873.0603	927.3873	967.3587	1013.2844	1036.4657	1058.6053	1117.3283	1199.2852	1265.9036	1292.5024	1365.0444	1410.309	1464.3869	1475.7146	1479.6309	1504.5357	1589.0966	1614.2545	1642.8759	3040.9097	3100.2302	3127.2604	3140.6118	3169.9955	3580.9485	3697.0056
CC1=CN=CC(N)=N1	Cc1cncc(N)n1	
InChI=1S/C5H7N3/c1-4-2-7-3-5(6)8-4/h2-3H,1H3,(H2,6,8)	InChI=1S/C5H7N3/c1-4-2-7-3-5(6)8-4/h2-3H,1H3,(H2,6,8)
