12
gdb 3869	3.93505	3.33034	1.81541	3.6668	52.27	-0.2143	0.0126	0.2268	644.4786	0.092086	-356.679047	-356.672722	-356.671777	-356.708964	23.528	
N	 0.0991011138	 1.4278771922	 0.1136362826	-0.620146
C	 0.0086114328	 0.0291293991	 0.0086208693	 0.068559
C	-1.042131216	-0.829855084	 0.0056251284	 0.016581
O	-0.6108427887	-2.1073549914	-0.0350301778	-0.182283
N	 0.7856641152	-2.1122952139	-0.0673782277	-0.228889
C	 1.1397995803	-0.8487536917	-0.0380894588	 0.389983
N	 2.4598171505	-0.428270985	-0.1150738123	-0.596244
H	 0.6498853012	 1.8239393569	-0.641511839	 0.252536
H	-0.8085958638	 1.8759647772	 0.1188172599	 0.24752
H	-2.1115295219	-0.6901342607	 0.0341592516	 0.134781
H	 3.1156611428	-1.186249555	 0.0254712999	 0.260363
H	 2.6554304338	 0.3449579561	 0.5091807641	 0.257239
152.1022	229.455	272.9126	349.1144	387.9261	473.3862	575.2525	642.9315	694.6724	765.017	776.6081	784.6645	826.457	910.5503	945.1259	1129.0699	1134.2777	1167.1273	1286.0233	1332.5054	1491.6016	1569.0938	1633.5758	1648.6399	1702.7433	3262.4122	3507.5474	3532.6552	3605.7103	3631.9452
NC1=CON=C1N	Nc1conc1N	
InChI=1S/C3H5N3O/c4-2-1-7-6-3(2)5/h1H,4H2,(H2,5,6)	InChI=1S/C3H5N3O/c4-2-1-7-6-3(2)5/h1H,4H2,(H2,5,6)
