12
gdb 4404	3.8961	2.06804	1.35111	7.2508	61.96	-0.2309	-0.0483	0.1826	824.6886	0.084475	-414.725922	-414.718996	-414.718051	-414.757104	25.267	
N	 0.0530271513	 1.3430308113	 0.0660821643	-0.558979
C	-0.0557153569	 0.0005159051	 0.0226340805	 0.504373
C	-1.2406014148	-0.7121588274	 0.0146318557	-0.284213
C	-1.1099072422	-2.104001766	-0.0094601882	 0.047571
N	 0.019358254	-2.782501884	-0.0243123827	-0.351793
C	 1.1927475363	-2.1108862566	-0.016331651	 0.444531
O	 2.3116215512	-2.5179384681	-0.0256718613	-0.325818
O	 1.1059729568	-0.6217566867	 0.0049636685	-0.261889
H	 0.9642931097	 1.7577529941	-0.0337416491	 0.282767
H	-0.7604499558	 1.9237414944	-0.0330377977	 0.279106
H	-2.2014812102	-0.2189560515	 0.0289644854	 0.10022
H	-2.0157733395	-2.7100876347	-0.0179341844	 0.124124
115.8892	166.4477	180.8541	308.3191	433.9182	480.6066	489.8245	540.3844	563.8013	675.2273	732.5212	764.745	789.9188	853.5091	958.635	1018.5342	1027.3581	1090.4329	1133.5878	1372.4965	1408.8324	1461.9989	1568.607	1634.8992	1667.8867	1904.9319	3133.3627	3234.1964	3618.536	3749.8444
NC1=CC=NC(=O)O1	Nc1ccnc(=O)o1	
InChI=1S/C4H4N2O2/c5-3-1-2-6-4(7)8-3/h1-2H,5H2	InChI=1S/C4H4N2O2/c5-3-1-2-6-4(7)8-3/h1-2H,5H2
