13
gdb 2194	4.0572	2.63134	1.84225	2.9275	49.93	-0.2659	-0.003	0.2629	681.6803	0.100613	-381.612946	-381.605844	-381.6049	-381.6442	24.633	
C	-0.2442519769	 1.5048775969	 0.0322496043	-0.393549
C	 0.0628431317	 0.0265724072	 0.0358576891	 0.119556
O	 1.277062888	-0.2903490179	-0.752633384	-0.251626
C	 1.9505698854	-0.7260476189	 0.3522226689	 0.416426
O	 3.0884463732	-1.0618512137	 0.4447638677	-0.329197
C	 0.743827989	-0.5660812304	 1.2916727304	-0.066195
O	 0.8930576449	 0.3182973558	 2.3691818906	-0.420153
H	 0.5901501962	 2.0770083897	 0.4420889388	 0.141344
H	-0.4474341372	 1.8442372695	-0.9870471024	 0.133809
H	-1.1280572346	 1.7012956437	 0.6468212306	 0.134703
H	-0.7675854766	-0.5708000708	-0.3478139752	 0.102685
H	 0.3238442974	-1.5335858848	 1.5998774657	 0.10668
H	 1.6763054595	 0.0520893737	 2.8639018554	 0.305518
95.369	135.0648	201.4701	243.0498	263.2551	375.9468	483.6778	559.9235	695.9299	765.5214	826.8436	860.7785	921.4479	1039.4864	1048.5666	1134.1674	1142.8716	1185.5522	1204.6724	1313.5361	1332.7578	1379.3897	1403.9699	1417.6882	1485.1979	1488.4776	1932.3906	3011.6486	3051.5954	3087.4361	3122.1081	3144.4758	3809.5661
CC1OC(=O)C1O	C[C@H]1OC(=O)[C@H]1O	
InChI=1S/C4H6O3/c1-2-3(5)4(6)7-2/h2-3,5H,1H3	InChI=1S/C4H6O3/c1-2-3(5)4(6)7-2/h2-3,5H,1H3/t2-,3+/m1/s1
