17
gdb 3507	6.23417	1.96506	1.91064	1.0355	64.97	-0.2488	0.098	0.3468	749.8514	0.14931	-309.6554	-309.64891	-309.647966	-309.685828	24.628	
C	 0.0046555604	 1.3045598593	-0.2188511601	-0.242784
O	-0.0566412648	 0.0379140854	 0.3985522037	-0.255155
C	-1.2867426812	-0.6014767863	 0.221529514	 0.200649
C	-1.5787653655	-1.3963196132	-1.0969945207	-0.089005
C	-0.5048143234	-2.421660518	-0.6220838093	-0.216928
C	-1.345887738	-2.0857364982	 0.648729763	-0.086023
C	-2.6100056044	-2.1950155506	-0.2522541413	-0.222439
H	 0.9768814851	 1.7392866683	 0.0250252647	 0.126735
H	-0.0894043658	 1.2346646603	-1.3126677943	 0.107952
H	-0.7867479779	 1.9746663629	 0.152094616	 0.104663
H	-2.1097841998	 0.039039615	 0.5747426119	 0.055939
H	-1.7214286429	-0.998797023	-2.1028101954	 0.066778
H	-0.6044654101	-3.438377494	-1.0113479918	 0.085352
H	 0.5302963017	-2.0822781931	-0.6219635361	 0.108349
H	-1.2145688685	-2.4790979388	 1.6573083695	 0.071686
H	-3.5064843379	-1.6620766937	 0.0791632335	 0.088388
H	-2.8511627169	-3.1959811622	-0.6157835574	 0.095841
90.2183	182.0089	214.2892	344.4293	432.3747	531.8481	589.4961	771.2298	805.3447	876.8971	901.2041	907.7183	917.532	999.9687	1020.5891	1024.545	1066.0473	1090.2181	1104.7701	1115.8965	1146.7708	1175.504	1184.8225	1198.8668	1217.2133	1230.8692	1248.5283	1262.4243	1279.2479	1406.249	1481.4734	1487.7643	1495.295	1508.7763	1532.77	2974.0486	2985.2122	3025.1672	3050.2482	3065.0309	3101.1743	3109.7396	3115.5367	3120.6707	3149.3083
COC1C2CC1C2	CO[C@H]1[C@H]2C[C@@H]1C2	
InChI=1S/C6H10O/c1-7-6-4-2-5(6)3-4/h4-6H,2-3H2,1H3	InChI=1S/C6H10O/c1-7-6-4-2-5(6)3-4/h4-6H,2-3H2,1H3/t4-,5+,6-
