15
gdb 2537	3.30039	2.16055	1.37901	3.1904	58.12	-0.2521	0.0163	0.2684	861.195	0.124573	-341.826148	-341.817938	-341.816994	-341.858698	28.043	
C	 0.0516141044	 1.3613694118	-0.0905698186	-0.249215
O	-0.174110958	-0.0196521284	 0.1367712004	-0.237818
C	 0.6105260648	-0.5726453408	 1.1698631952	 0.001406
C	 0.0459114047	-1.9624778352	 1.4799011181	-0.168323
N	-1.3056024265	-1.8055554809	 2.0052405586	-0.516359
C	 2.0365495844	-0.6500826703	 0.7789687205	 0.268594
N	 3.148498787	-0.702426497	 0.469029017	-0.323274
H	 1.0837953134	 1.5538999172	-0.4120349164	 0.135262
H	-0.6327272102	 1.6647999883	-0.8849510048	 0.138261
H	-0.1566738586	 1.9534963461	 0.8121568992	 0.117728
H	 0.5387105843	 0.0435714616	 2.0797441124	 0.122095
H	 0.1267676168	-2.5695697766	 0.5639657883	 0.110785
H	 0.6773781691	-2.4291747502	 2.2426721484	 0.125026
H	-1.8989281532	-1.4225736549	 1.275923808	 0.241421
H	-1.6880974126	-2.7116798607	 2.2537817537	 0.23441
99.4673	123.3424	149.9813	176.5316	235.493	277.3052	298.049	365.7291	478.4428	548.3617	596.5129	829.671	864.0938	963.1519	1008.1673	1067.2518	1108.9132	1154.0208	1180.6622	1185.4162	1244.2683	1278.9593	1342.1789	1369.579	1429.4503	1480.6198	1487.7496	1497.4397	1507.7123	1648.9107	2353.9975	2975.6892	2994.3863	2997.8481	3056.17	3080.0211	3132.0623	3506.7697	3586.9436
COC(CN)C#N	CO[C@@H](CN)C#N	
InChI=1S/C4H8N2O/c1-7-4(2-5)3-6/h4H,2,5H2,1H3	InChI=1S/C4H8N2O/c1-7-4(2-5)3-6/h4H,2,5H2,1H3/t4-/m0/s1
