9
gdb 3896	6.03528	2.92428	1.96983	2.4177	46.66	-0.2701	-0.0861	0.184	567.5171	0.055941	-375.359188	-375.354066	-375.353122	-375.388412	17.987	
O	-0.0185507419	-0.0253631593	 0.0036450669	-0.313689
C	-0.0071079902	 1.1816121691	 0.0092263735	 0.379345
C	-1.2591880892	 1.9777181213	 0.0306095612	-0.038653
N	-1.3374202882	 3.256853679	 0.038211034	-0.036015
O	-0.1089364786	 3.931334863	 0.0248485687	-0.205318
C	 1.0272763824	 3.2139974688	 0.00573622	 0.181956
N	 1.171030962	 1.9457356399	-0.0027032866	-0.305914
H	-2.212389733	 1.4558713494	 0.0410591993	 0.169482
H	 1.8810094867	 3.8896439588	-0.0023378071	 0.168806
96.0871	398.5321	448.8662	457.3478	560.0808	663.1381	792.1552	815.7678	851.0268	962.6678	988.7149	989.1837	1092.2285	1260.2283	1303.6604	1414.7962	1624.7948	1673.5101	1811.7231	3165.0471	3185.8445
O=C1C=NOC=N1	O=c1cnocn1	
InChI=1S/C3H2N2O2/c6-3-1-5-7-2-4-3/h1-2H	InChI=1S/C3H2N2O2/c6-3-1-5-7-2-4-3/h1-2H
