16
gdb 4824	4.52374	1.43648	1.11253	3.2218	68.36	-0.2041	0.0351	0.2392	1049.5339	0.131524	-379.963269	-379.955187	-379.954243	-379.996127	28.793	
C	 0.0419551294	 1.4826566533	 0.1031561225	-0.507317
C	 0.0016488409	-0.0023838048	-0.0197169868	 0.293803
C	-0.1376068441	-0.8406657807	-1.0969619676	-0.171668
N	-0.1415960575	-2.1624683778	-0.7059065397	-0.319977
C	 0.000971517	-2.1313300882	 0.5984635099	 0.348246
C	 0.1051910778	-3.3068126864	 1.5160093761	-0.19092
O	-0.2253066928	-2.8601294834	 2.8279954988	-0.430616
N	 0.099518363	-0.8539435486	 1.0639103562	-0.314718
H	 0.983745092	 1.8382091492	 0.5392558403	 0.127589
H	-0.0557604657	 1.9367154229	-0.8858161105	 0.140417
H	-0.7736259915	 1.8695508567	 0.7267269529	 0.128779
H	-0.2416251804	-0.5610164229	-2.135070026	 0.098572
H	-0.5717284778	-4.0953967757	 1.1603130457	 0.1242
H	 1.1276684463	-3.7167575465	 1.4907408308	 0.110813
H	 0.008089867	-3.5554670679	 3.4489720996	 0.295436
H	 0.1589530664	-0.6111564093	 2.0391076179	 0.26736
62.4951	133.3658	160.7891	193.0033	246.085	300.3855	340.5666	481.2517	574.8845	626.7847	662.1281	694.6561	739.0821	838.2255	990.7225	1008.6471	1033.7111	1045.5914	1065.9798	1075.826	1174.6823	1177.6744	1226.2703	1244.4395	1288.1473	1387.3162	1419.4718	1440.4437	1471.6392	1480.5306	1500.3006	1514.3621	1556.5104	1627.4366	2971.3097	3018.3126	3026.8901	3063.0495	3120.7782	3241.5743	3664.279	3842.5902
CC1=CN=C(CO)N1	Cc1cnc(CO)[nH]1	
InChI=1S/C5H8N2O/c1-4-2-6-5(3-8)7-4/h2,8H,3H2,1H3,(H,6,7)	InChI=1S/C5H8N2O/c1-4-2-6-5(3-8)7-4/h2,8H,3H2,1H3,(H,6,7)
