12
gdb 2736	4.63006	2.26359	1.63314	2.5599	57.51	-0.2471	-0.0336	0.2135	724.1551	0.088707	-323.323781	-323.31715	-323.316206	-323.354477	23.93	
O	-0.059833014	-0.0133242728	-0.0780771818	-0.263209
C	-0.055579393	 1.1700585406	 0.0293197495	 0.393074
C	-1.1093986002	 2.2684461558	 0.2175357562	-0.285003
N	-0.007853221	 3.218632307	 0.5157138537	-0.307743
C	 1.0547017647	 2.2716961946	 0.0609553453	-0.296749
C	 2.196128486	 2.094670857	 0.9336945894	 0.355782
C	 3.1417981532	 1.9174051768	 1.6536329172	-0.424747
H	-1.6727115408	 2.4518124429	-0.7086213119	 0.127581
H	-1.8196096418	 2.1216207313	 1.0380068819	 0.144032
H	-0.037653276	 4.0791693286	-0.0177046536	 0.231508
H	 1.3943826084	 2.4476626211	-0.9727106263	 0.12217
H	 3.9745508346	 1.765988507	 2.2951268804	 0.203302
104.2622	126.097	223.5008	366.3514	424.5882	515.826	582.2917	615.3958	628.3176	667.678	732.7358	816.6488	950.6958	992.6585	1010.3122	1064.1169	1080.1392	1106.6642	1194.5511	1272.0486	1333.1065	1371.1186	1475.2429	1931.0495	2238.1363	2973.2967	3009.1527	3074.5529	3503.5373	3553.7213
O=C1CNC1C#C	O=C1CN[C@H]1C#C	
InChI=1S/C5H5NO/c1-2-4-5(7)3-6-4/h1,4,6H,3H2	InChI=1S/C5H5NO/c1-2-4-5(7)3-6-4/h1,4,6H,3H2/t4-/m0/s1
