15
gdb 1845	6.04704	1.9839	1.53607	2.8314	63.36	-0.2387	-0.0142	0.2245	788.4717	0.124501	-308.560759	-308.553965	-308.553021	-308.591588	25.065	
C	-0.0164925578	 1.4966583573	 0.0398045504	-0.4878
C	-0.0017437416	 0.0020017289	-0.0033242017	 0.326818
C	-0.0433236371	-0.7711874101	-1.0941281444	-0.167521
C	-0.0127953649	-2.2418465007	-0.7856496219	-0.364985
C	 0.0582778129	-2.2763480082	 0.7504791398	 0.396063
O	 0.1007422135	-3.2641343565	 1.4344410292	-0.30143
C	 0.0654779345	-0.8255636025	 1.2576253399	-0.410811
H	 0.881019445	 1.8879691019	 0.5356328875	 0.127922
H	-0.0664333737	 1.9269431684	-0.964242413	 0.125329
H	-0.8744683648	 1.8683387793	 0.6144803592	 0.12795
H	-0.0941786687	-0.3884103805	-2.1079516507	 0.092274
H	-0.9001676469	-2.7896108016	-1.1298694189	 0.134875
H	 0.8511185385	-2.7701779716	-1.2104776812	 0.134874
H	 0.9682468257	-0.6404013019	 1.8555338861	 0.133221
H	-0.7824361046	-0.6598906522	 1.9361274899	 0.133219
71.7231	184.7731	240.2524	289.0056	426.2269	478.512	486.025	544.4689	672.4824	785.2537	803.22	831.3723	883.6153	967.5961	992.9199	1034.3107	1062.3435	1126.48	1130.9408	1184.9613	1186.2519	1277.3036	1289.1474	1350.0362	1415.4354	1440.0602	1447.1954	1478.156	1487.9243	1716.1443	1854.1651	3016.0011	3019.4846	3022.7569	3045.4903	3047.4616	3063.8061	3109.772	3186.3753
CC1=CCC(=O)C1	CC1=CCC(=O)C1	
InChI=1S/C6H8O/c1-5-2-3-6(7)4-5/h2H,3-4H2,1H3	InChI=1S/C6H8O/c1-5-2-3-6(7)4-5/h2H,3-4H2,1H3
