13
gdb 970	3.65621	3.38968	1.77845	1.5353	56.4	-0.1959	0.0248	0.2208	674.4643	0.101384	-344.481904	-344.475038	-344.474094	-344.512774	24.393	
C	 0.1144559815	 1.5061777104	-0.0024046196	-0.498022
C	-0.0364544419	 0.0310184944	-0.0392052317	 0.2788
C	-1.1192869306	-0.7944006376	 0.0332912435	 0.206796
O	-2.406926061	-0.3633197198	 0.1678741899	-0.445884
C	-0.6376439419	-2.1422571279	-0.0577278511	-0.308555
C	 0.7113855827	-2.0358814762	-0.179532855	-0.000333
O	 1.0936533609	-0.737693386	-0.1706211578	-0.178514
H	 0.734982511	 1.8342216033	 0.8400892282	 0.132414
H	 0.5733520852	 1.8945714889	-0.9194838565	 0.132412
H	-0.8727647535	 1.9618747232	 0.1039161913	 0.145614
H	-2.9876022958	-1.1283865788	 0.1948057828	 0.299052
H	-1.217653713	-3.0525535566	-0.0348412833	 0.104205
H	 1.5021813064	-2.7610047973	-0.2782783307	 0.132014
89.4237	154.8264	219.7347	247.1818	327.4781	439.7243	612.2006	640.187	672.5372	726.8527	730.0505	785.6959	904.3993	960.5954	1064.9774	1078.7305	1092.9957	1192.028	1242.4268	1303.2118	1314.5736	1412.6007	1467.0748	1474.8652	1492.7163	1546.4595	1711.8567	3022.6039	3069.1973	3127.9353	3242.8035	3281.5022	3853.0655
CC1=C(O)C=CO1	Cc1c(O)cco1	
InChI=1S/C5H6O2/c1-4-5(6)2-3-7-4/h2-3,6H,1H3	InChI=1S/C5H6O2/c1-4-5(6)2-3-7-4/h2-3,6H,1H3
