10
gdb 684	8.31088	3.61027	2.9094	2.7712	43.08	-0.2489	-0.031	0.2179	444.2643	0.072489	-305.134491	-305.129673	-305.128729	-305.162619	17.466	
O	 0.0157923289	 0.0192731848	-0.0474144044	-0.287502
C	 0.0076096557	 1.2084752886	 0.0427217841	 0.420574
C	-1.127900976	 2.2822233043	 0.1124356278	-0.369172
C	-0.0123830231	 3.3209509903	-0.0686245239	 0.037854
O	 0.8541070088	 3.166603288	 1.0463232037	-0.22774
C	 1.0689372461	 2.3008866941	-0.0894736499	-0.101492
H	-1.8057268929	 2.1682036317	-0.7388848095	 0.136289
H	-1.6966165963	 2.3617307892	 1.0404526773	 0.140737
H	-0.0359013023	 4.2774714669	-0.5749655706	 0.125169
H	 2.0541872611	 2.2935381121	-0.5396697345	 0.125283
155.9887	413.6022	446.7534	576.3214	669.9297	782.0772	844.5379	852.6325	925.596	965.1684	986.5598	1020.6969	1065.6814	1136.7	1193.8128	1213.0851	1260.8608	1345.5358	1443.5663	1905.3715	3069.8885	3134.8402	3197.399	3212.2912
O=C1CC2OC12	O=C1C[C@H]2O[C@@H]12	
InChI=1S/C4H4O2/c5-2-1-3-4(2)6-3/h3-4H,1H2	InChI=1S/C4H4O2/c5-2-1-3-4(2)6-3/h3-4H,1H2/t3-,4+/m1/s1
