13
gdb 3667	3.77347	3.28495	1.7756	2.8673	55.24	-0.2106	0.0408	0.2514	673.3183	0.102838	-340.656722	-340.649872	-340.648928	-340.687789	24.23	
C	 0.0425492863	 1.5422685423	 0.0068857246	-0.527406
C	 0.0328638142	 0.0443797531	 0.0017952335	 0.072609
C	 0.0371505244	-0.7968612644	-1.0956806371	 0.364287
O	 0.0344020059	-0.57848203	-2.4303968199	-0.427362
N	 0.035572909	-2.068511334	-0.6403600896	-0.246848
N	 0.0282180865	-2.1337295831	 0.7164273018	-0.24181
C	 0.0287732866	-0.8615606474	 1.0922338855	-0.061563
H	 1.0562680763	 1.9625165132	-0.00155659	 0.13121
H	-0.4879192097	 1.9576410928	-0.8597221525	 0.107779
H	-0.4608393712	 1.9329596919	 0.8961752771	 0.137902
H	 0.0625647769	 0.3713855037	-2.5843290223	 0.310576
H	 0.0274232157	-2.9105355206	-1.1897645851	 0.275467
H	 0.0215039692	-0.6174207776	 2.1457548441	 0.105161
53.5226	221.0983	239.9754	254.9564	313.7053	446.4144	461.6821	644.9289	680.9596	693.4025	742.2706	880.4726	943.7517	994.7892	1061.7656	1111.4572	1160.3657	1234.1308	1245.0855	1363.1427	1381.6982	1422.6654	1456.153	1487.4204	1500.7269	1587.339	1648.3187	3011.0977	3055.9689	3097.6217	3229.8751	3681.1026	3832.9735
CC1=C(O)NN=C1	Cc1c(O)[nH]nc1	
InChI=1S/C4H6N2O/c1-3-2-5-6-4(3)7/h2H,1H3,(H2,5,6,7)	InChI=1S/C4H6N2O/c1-3-2-5-6-4(3)7/h2H,1H3,(H2,5,6,7)
