21
gdb 3969	2.97037	1.45312	1.25456	0.5546	77.68	-0.2396	0.019	0.2586	1098.6216	0.185185	-366.238594	-366.228499	-366.227555	-366.272699	37.732	
C	-0.0037023191	 1.5147701543	 0.0439872317	-0.471771
C	 0.02324844	 0.0065941998	 0.0336539384	 0.358097
N	 0.0697642614	-0.6799679434	 1.1107870703	-0.179135
O	 0.0907338002	 0.1427358015	 2.252876506	-0.408198
C	-0.0044032662	-0.7630045722	-1.285170448	 0.174251
C	 0.0299863138	-2.2825035062	-1.050825556	-0.393927
C	-1.2980332695	-0.4041371464	-2.051944858	-0.407632
C	 1.2249245777	-0.3594111578	-2.1313582029	-0.407645
H	 0.8807778963	 1.9028207223	 0.5590978601	 0.144995
H	-0.0416441514	 1.9379585668	-0.9595002464	 0.117576
H	-0.8691067984	 1.8712437847	 0.6116751776	 0.144968
H	 0.1253828527	-0.5057276539	 2.9635776906	 0.302843
H	-0.8268001035	-2.6140692743	-0.4595421809	 0.119044
H	 0.0089839259	-2.8030070433	-2.0141816221	 0.096418
H	 0.9334768706	-2.5827145202	-0.5148789938	 0.119059
H	-1.3696670428	 0.6661963383	-2.2665821743	 0.112024
H	-1.3244998453	-0.934921708	-3.0094524988	 0.113848
H	-2.1848492204	-0.694946644	-1.4799827423	 0.11965
H	 2.1557099988	-0.6175079079	-1.6164017186	 0.119655
H	 1.2101538678	-0.8904859886	-3.0889553563	 0.113861
H	 1.2447575413	 0.7124260086	-2.3494535563	 0.11202
61.6368	120.4873	192.9322	230.3835	233.5564	268.9221	284.2547	303.2094	346.3131	348.8451	368.7649	390.1909	450.4199	476.9287	568.9602	595.4222	740.1062	844.3473	930.7559	940.9363	961.9353	964.4335	1015.4602	1022.979	1058.6267	1061.068	1170.2897	1225.0591	1240.4308	1302.8836	1389.7102	1395.9885	1397.0172	1403.3131	1432.6793	1470.4818	1481.8021	1482.3676	1482.7635	1487.6825	1502.9474	1508.2688	1521.1674	1717.1673	3031.4503	3034.082	3042.0653	3048.8828	3099.5216	3101.1845	3102.8218	3107.3812	3110.3869	3112.1664	3127.4693	3152.0146	3823.3597
CC(=NO)C(C)(C)C	CC(=NO)C(C)(C)C	
InChI=1S/C6H13NO/c1-5(7-8)6(2,3)4/h8H,1-4H3	InChI=1S/C6H13NO/c1-5(7-8)6(2,3)4/h8H,1-4H3
