16
gdb 1668	4.84841	2.00485	1.45733	2.2499	59.15	-0.2359	0.0636	0.2995	847.0436	0.13503	-362.951503	-362.942526	-362.941582	-362.986677	28.805	
C	 0.0164545493	 1.3929359241	-0.0332699097	-0.230425
O	 0.0068782143	-0.0343788176	 0.0195613985	-0.26138
C	 0.6522330222	-0.5595520291	 1.0945683854	 0.530402
O	 1.1926299066	 0.1227421541	 1.9411502874	-0.430007
N	 0.6115632914	-1.9243598642	 1.0934968165	-0.143067
C	 1.2557400179	-2.6417606168	 2.176699728	-0.337976
C	-0.038102529	-2.7277273329	 0.0755875676	-0.338026
H	 1.0391841991	 1.7751556596	-0.0833720925	 0.137762
H	-0.5323479902	 1.6568242467	-0.9382524393	 0.125676
H	-0.4723206509	 1.819697132	 0.8462442683	 0.137778
H	 0.5281688882	-3.2586815298	 2.7201491164	 0.118879
H	 2.0413127951	-3.3040980208	 1.7901061845	 0.118886
H	 1.6970769108	-1.9180562706	 2.8594368131	 0.168617
H	-0.4825757342	-2.0869472844	-0.6809675024	 0.160861
H	 0.6865273296	-3.3976592907	-0.4063165681	 0.121016
H	-0.8249591103	-3.3509857495	 0.5212012963	 0.121005
14.6693	89.1704	115.2951	129.5161	157.8616	217.8474	236.3557	369.9005	383.0922	531.8619	612.5087	771.6182	829.7465	990.8051	1085.1574	1091.4614	1135.6735	1182.1599	1184.2081	1209.9303	1221.2151	1292.9814	1423.581	1435.6341	1457.3233	1479.4775	1484.5465	1488.2692	1500.2346	1502.7543	1505.7621	1549.9207	1795.7726	3003.3046	3011.5558	3045.6779	3049.3814	3052.7425	3123.3324	3149.8665	3171.3097	3187.7293
COC(=O)N(C)C	COC(=O)N(C)C	
InChI=1S/C4H9NO2/c1-5(2)4(6)7-3/h1-3H3	InChI=1S/C4H9NO2/c1-5(2)4(6)7-3/h1-3H3
