14
gdb 361	9.53439	2.13951	1.80586	1.6323	50.2	-0.268	0.0192	0.2871	694.4729	0.118017	-307.61045	-307.602997	-307.602053	-307.642398	24.367	
C	-0.0601114197	 1.5086060089	-0.0808564793	-0.37005
C	 0.0398313002	-0.0078222997	 0.0641804935	-0.300926
C	 0.7905975574	-0.4294228365	 1.310905497	 0.447366
O	 1.2740159604	 0.3136419107	 2.127692001	-0.354439
O	 0.8542268954	-1.7753783876	 1.3984452287	-0.233437
C	 1.5460772578	-2.2821516337	 2.5457438097	-0.237694
H	 0.932496088	 1.9630682578	-0.1315199793	 0.132292
H	-0.6081378753	 1.7706907735	-0.9900654931	 0.111395
H	-0.5771058214	 1.9502141727	 0.7747512612	 0.132314
H	-0.9514565562	-0.4751473277	 0.0989049259	 0.131838
H	 0.5437683906	-0.4622666999	-0.7970904267	 0.131843
H	 1.5041460927	-3.3683526792	 2.4628034753	 0.131216
H	 2.5839941693	-1.9393418711	 2.5544966866	 0.139118
H	 1.0616672708	-1.9502354983	 3.4677082494	 0.139163
40.9613	119.5441	149.4138	205.0089	207.6339	328.4496	444.9076	582.2392	656.1672	811.3914	860.9733	987.7508	1033.5119	1106.3236	1107.6294	1179.4471	1204.9033	1224.2805	1278.3141	1380.1619	1416.649	1460.0721	1473.3616	1481.768	1492.3639	1497.7839	1500.8765	1821.5771	3042.5948	3050.3178	3052.1922	3071.7989	3123.6107	3123.7041	3129.0391	3156.6873
CCC(=O)OC	CCC(=O)OC	
InChI=1S/C4H8O2/c1-3-4(5)6-2/h3H2,1-2H3	InChI=1S/C4H8O2/c1-3-4(5)6-2/h3H2,1-2H3
