10
gdb 1023	9.34682	1.94393	1.60924	3.9819	54.46	-0.2568	-0.0328	0.224	684.2208	0.068859	-322.217569	-322.212244	-322.2113	-322.246743	19.235	
N	 0.0008697402	-1.1524162648	-0.00305241	-0.334619
C	-0.0058967498	 0.0053602875	 0.002927465	 0.200797
C	-0.0010879991	 1.4219758765	 0.0105603274	 0.142987
C	-1.0978898565	 2.2389979041	 0.0294655217	-0.078281
O	-0.7173494365	 3.5300247357	 0.0314373203	-0.127952
C	 0.6462537945	 3.5546548107	 0.01357791	 0.019505
C	 1.1450762768	 2.2961805183	 0.0001245098	-0.289629
H	-2.1567414394	 2.0430060607	 0.042382371	 0.169052
H	 1.0952385371	 4.53335734	 0.0129602653	 0.156697
H	 2.1810360326	 2.0003669512	-0.0151907305	 0.141445
174.195	180.1448	508.6046	559.9989	565.1431	619.4677	662.2132	752.2007	813.0605	852.9005	891.9973	986.3086	1049.2994	1115.5185	1206.3863	1259.3801	1288.3412	1381.2947	1539.9217	1604.6307	2353.284	3273.4257	3289.2172	3298.814
N#CC1=COC=C1	N#Cc1cocc1	
InChI=1S/C5H3NO/c6-3-5-1-2-7-4-5/h1-2,4H	InChI=1S/C5H3NO/c6-3-5-1-2-7-4-5/h1-2,4H
