17
gdb 1898	3.71321	2.76573	2.16613	1.9158	64.46	-0.2295	0.0894	0.3189	701.7911	0.147485	-309.66019	-309.653234	-309.65229	-309.69058	26.793	
C	-0.1630561614	 1.6280074898	-0.053862625	-0.442936
C	 0.0151360622	 0.1204513289	 0.024560795	 0.019142
C	 1.1799538663	-0.6471778187	-0.6583394166	 0.035842
C	 2.1805687562	-0.122000051	 0.3932621575	-0.267976
C	 0.8848565654	-0.5889222247	 1.1145832114	 0.399954
C	 0.61829054	-0.7841178253	 2.5745869504	-0.513398
O	 0.8954669043	-1.7921724711	 0.2343199751	-0.343248
H	 0.7700874672	 2.1819359624	 0.0769663921	 0.118283
H	-0.5841791822	 1.9130725464	-1.0241567846	 0.1226
H	-0.8630908285	 1.9705747099	 0.7162470222	 0.121425
H	-0.9334062788	-0.4065175074	-0.1155696175	 0.077594
H	 1.3395752139	-0.8665224027	-1.7145257149	 0.087463
H	 3.045735297	-0.7657950012	 0.5580356992	 0.103136
H	 2.4405514288	 0.9383800996	 0.4014332498	 0.091907
H	 0.6270830233	 0.179724606	 3.0938048335	 0.125082
H	-0.3599422812	-1.2505041869	 2.7267588193	 0.13229
H	 1.3825218475	-1.4252720042	 3.024345833	 0.132839
174.3032	184.0051	198.066	301.2738	331.4046	372.4769	555.3989	592.3529	629.1989	707.4493	784.0958	802.3845	876.0123	906.1133	957.2457	1009.4265	1012.2993	1034.0858	1097.032	1113.8264	1135.8492	1148.7827	1190.1719	1225.3717	1233.2505	1266.1193	1317.2424	1386.3248	1407.879	1419.8206	1477.2885	1488.7692	1494.3574	1496.0846	1507.3126	3034.4129	3037.6054	3068.6981	3071.987	3091.8784	3111.0381	3113.394	3114.0058	3116.5108	3145.6215
CC1C2CC1(C)O2	C[C@H]1[C@H]2C[C@]1(C)O2	
InChI=1S/C6H10O/c1-4-5-3-6(4,2)7-5/h4-5H,3H2,1-2H3	InChI=1S/C6H10O/c1-4-5-3-6(4,2)7-5/h4-5H,3H2,1-2H3/t4-,5+,6-/m0/s1
