13
gdb 941	5.80863	2.66674	1.83068	3.1429	63.26	-0.2124	-0.0137	0.1987	656.1003	0.105287	-303.556664	-303.55101	-303.550066	-303.585747	22.057	
N	-0.014373232	 1.4109046567	 0.1468294919	-0.590957
C	 0.019443563	 0.0221323519	 0.045225419	 0.284544
C	-1.1660106034	-0.7312443111	 0.0245264571	-0.047343
N	-1.2072469342	-2.0592087064	-0.0125743639	-0.252481
C	-0.0471498775	-2.7218585097	-0.0330309344	-0.018925
C	 1.1860123402	-2.0763751008	-0.0194094553	-0.101185
C	 1.2234896332	-0.6892412777	 0.0196723208	-0.150867
H	 0.796051338	 1.8874771141	-0.2210945826	 0.248627
H	-0.8718328022	 1.8388509899	-0.1715995591	 0.250482
H	-2.1257569987	-0.2148739442	 0.0407457957	 0.090404
H	-0.1081532287	-3.8061445157	-0.0637177255	 0.100451
H	 2.1054879855	-2.6515768004	-0.0411389269	 0.096659
H	 2.1706945567	-0.1575286468	 0.0337416132	 0.090591
223.1254	293.1233	373.4682	422.8558	511.0567	551.2551	609.7831	637.9122	734.5341	827.766	843.9083	917.5257	942.35	980.6558	1027.4699	1068.4646	1085.8736	1153.7588	1230.3185	1306.5412	1325.7076	1373.8613	1478.9694	1519.4584	1613.8633	1633.2222	1659.2683	3124.0164	3161.2054	3166.7954	3193.6675	3562.8014	3660.9106
NC1=CN=CC=C1	Nc1cnccc1	
InChI=1S/C5H6N2/c6-5-2-1-3-7-4-5/h1-4H,6H2	InChI=1S/C5H6N2/c6-5-2-1-3-7-4-5/h1-4H,6H2
