17
gdb 1301	3.24496	2.59114	2.1458	2.6086	64.27	-0.2338	-0.0164	0.2174	729.1336	0.146469	-309.738513	-309.730687	-309.729743	-309.770655	28.48	
C	-0.154063165	 1.5225880037	 0.0949576407	-0.43314
C	-0.0263559008	-0.0010709904	-0.0246835831	 0.212217
C	-1.3756740737	-0.6941501985	 0.1627646834	-0.438468
C	 0.838682327	-0.4714770942	-1.247975356	-0.275585
C	 2.0145767797	-0.864666235	-0.3032940793	-0.343863
C	 1.0955513916	-0.5509334064	 0.8876218653	 0.378856
O	 1.17894945	-0.7122425717	 2.071228681	-0.303611
H	 0.8122932324	 2.0221700596	-0.0315632923	 0.115262
H	-0.8345972013	 1.9094885632	-0.6716711985	 0.118508
H	-0.549510478	 1.8005455312	 1.0768900549	 0.131795
H	-2.0952630526	-0.3509896324	-0.588968545	 0.116126
H	-1.2855589936	-1.7814640476	 0.0720942585	 0.115451
H	-1.785377242	-0.4743776342	 1.1536125908	 0.132531
H	 0.4058186934	-1.3249153625	-1.7743017408	 0.10705
H	 1.0671174946	 0.3087505038	-1.9764020244	 0.104041
H	 2.3733651648	-1.8963957036	-0.3491291978	 0.130387
H	 2.8842068736	-0.2015935652	-0.3506962275	 0.132443
38.1735	171.1982	203.4585	229.2877	277.4343	336.818	343.1906	495.0844	509.7484	652.4215	704.8876	742.3589	845.1079	921.6486	936.0379	964.3527	984.2847	986.2679	1058.7496	1090.3057	1175.7208	1203.1465	1228.2321	1231.8622	1252.5656	1294.3839	1395.0562	1416.0997	1436.9248	1481.8532	1484.0799	1490.1008	1501.3476	1506.2418	1884.5632	3025.4814	3028.9382	3057.3598	3072.6057	3093.2183	3096.1637	3104.0015	3106.0379	3108.1296	3127.7104
CC1(C)CCC1=O	CC1(C)CCC1=O	
InChI=1S/C6H10O/c1-6(2)4-3-5(6)7/h3-4H2,1-2H3	InChI=1S/C6H10O/c1-6(2)4-3-5(6)7/h3-4H2,1-2H3
