16
gdb 1302	3.41126	2.58978	2.19606	3.4842	61.14	-0.2417	0.0406	0.2823	703.5296	0.136142	-325.809179	-325.80157	-325.800626	-325.840507	27.589	
C	-0.0513263269	 1.5384567492	-0.0067736145	-0.440157
C	-0.0385199496	 0.0115193979	-0.0189025699	 0.164484
C	-1.4216028709	-0.5842061936	 0.2330166305	-0.440279
C	 0.7660588507	-0.6405102046	-1.1960969028	-0.201262
N	 1.7102881193	-1.1354971554	-0.1925708515	-0.327268
C	 1.0673232293	-0.598217212	 0.8939594226	 0.407246
O	 1.2947000934	-0.6112264531	 2.0747609975	-0.371422
H	 0.9430735496	 1.9503806308	-0.2060393121	 0.120623
H	-0.7413260466	 1.9310747886	-0.7618530821	 0.115203
H	-0.3747786112	 1.9054072036	 0.9721860924	 0.135974
H	-2.1407277068	-0.2373391783	-0.517290167	 0.115228
H	-1.3994774542	-1.6782501863	 0.2042815277	 0.120618
H	-1.7884211322	-0.2833937159	 1.2192176054	 0.135959
H	 0.2351599169	-1.4291358358	-1.7397946901	 0.108143
H	 1.2001778002	 0.0682491852	-1.909275683	 0.108129
H	 2.5525033292	-1.6864532502	-0.2693389632	 0.248781
96.3324	183.1768	212.1452	221.1146	281.1149	311.008	341.3684	478.1639	529.3373	674.4812	744.4086	763.3714	845.6458	941.6073	966.5625	987.6158	1008.104	1035.4625	1155.3708	1160.3055	1191.4565	1250.8999	1272.0193	1306.1119	1390.2515	1399.3915	1423.927	1482.2447	1485.6768	1502.6571	1504.52	1529.0514	1889.6415	3028.4446	3029.8562	3035.2607	3078.6539	3096.9341	3099.7504	3108.0737	3110.8759	3606.9842
CC1(C)CNC1=O	CC1(C)CNC1=O	
InChI=1S/C5H9NO/c1-5(2)3-6-4(5)7/h3H2,1-2H3,(H,6,7)	InChI=1S/C5H9NO/c1-5(2)3-6-4(5)7/h3H2,1-2H3,(H,6,7)
