9
gdb 15	39.37691	10.04033	8.90353	1.1502	28.13	-0.2525	0.091	0.3435	187.1015	0.079534	-154.960361	-154.956045	-154.9551	-154.985747	12.934	
C	-0.0148214665	 1.3924123373	 0.0056710438	-0.223408
O	-0.0047153748	-0.0136066049	 0.0145965754	-0.211337
C	 0.6379489343	-0.5532967625	-1.1135823232	-0.223408
H	 1.0052835779	 1.810158071	 0.0046563051	 0.101236
H	-0.5468955976	 1.7934353007	-0.8725105077	 0.101229
H	-0.5300289536	 1.7229196896	 0.9110169641	 0.126612
H	 0.1399379234	-0.2559933348	-2.0509837531	 0.101236
H	 1.6926527455	-0.2386838236	-1.1747774277	 0.101229
H	 0.5995943514	-1.6418016127	-1.0240761566	 0.126612
218.8572	243.9811	414.0405	953.6036	1129.1287	1167.2197	1201.8461	1205.8283	1272.7956	1462.5034	1479.5384	1488.9815	1492.3272	1498.4546	1522.3943	2955.8321	2970.1665	3002.6095	3006.8091	3111.3151	3113.2662
COC	COC	
InChI=1S/C2H6O/c1-3-2/h1-2H3	InChI=1S/C2H6O/c1-3-2/h1-2H3
