16
gdb 1985	5.76194	1.58148	1.44439	2.5562	61.56	-0.2389	-0.0104	0.2285	876.144	0.13489	-325.760915	-325.753121	-325.752176	-325.793848	27.085	
C	 0.4427187717	 0.5137427062	-0.5746111322	-0.462855
C	-0.4534409595	 0.3137961216	 0.6289217069	 0.373851
O	-0.3037834136	 0.9208615754	 1.6636851155	-0.293774
C	-1.6159148024	-0.6731413817	 0.4808106912	-0.246928
N	-1.3257728216	-1.7637546064	-0.4378193562	-0.070181
C	-0.7775283535	-2.9805962119	 0.1600198545	-0.222579
C	-2.1827723002	-2.9389803716	-0.3297302713	-0.215869
H	 0.9843335131	-0.4115299402	-0.7951168921	 0.149763
H	-0.1542348902	 0.7341694851	-1.4656991506	 0.141047
H	 1.14678204	 1.3223098985	-0.3750519205	 0.133535
H	-1.9046073109	-1.0027848907	 1.4918916823	 0.10781
H	-2.4623940993	-0.1014544418	 0.0731047585	 0.128556
H	-0.0074122347	-3.4849756235	-0.416174691	 0.120791
H	-0.6262005282	-2.9943030736	 1.2381492402	 0.120216
H	-2.9700240934	-2.928274197	 0.4221952606	 0.114736
H	-2.4550495073	-3.4120409783	-1.2687344257	 0.121879
41.2355	83.5505	124.4518	175.7339	330.7807	372.6871	442.7332	496.9111	542.1024	762.2703	796.5169	832.4599	884.0838	902.1665	1002.4159	1033.9548	1038.8557	1091.9402	1115.5955	1123.6331	1173.2393	1183.5509	1234.2071	1264.3069	1322.7432	1352.3563	1384.0231	1452.4039	1460.0813	1469.9156	1492.2121	1520.7499	1816.6964	2974.3898	3029.2266	3046.4537	3097.2507	3101.5664	3108.3454	3155.4837	3181.1234	3195.3194
CC(=O)CN1CC1	CC(=O)CN1CC1	
InChI=1S/C5H9NO/c1-5(7)4-6-2-3-6/h2-4H2,1H3	InChI=1S/C5H9NO/c1-5(7)4-6-2-3-6/h2-4H2,1H3
