9
gdb 147	18.45912	3.25271	3.1231	2.3951	36.8	-0.2636	-0.0418	0.2217	402.0419	0.066465	-267.060326	-267.055484	-267.05454	-267.088115	15.818	
O	-0.2976124505	 0.2910686556	-0.6541451419	-0.242607
C	 0.2235951999	 0.8592614009	 0.2696931621	 0.152
C	 1.4400654976	 1.7160416305	 0.1450542826	-0.010013
C	 1.5035752587	 2.9696515097	 0.9280962738	-0.165834
O	 2.2249055359	 1.8227157868	 1.3373455835	-0.211613
H	-0.1633505761	 0.7954801678	 1.3117030676	 0.089228
H	 1.9902548349	 1.6391287398	-0.7904937097	 0.122868
H	 2.0953131091	 3.7929567254	 0.5322167199	 0.136165
H	 0.6657525704	 3.2517327136	 1.5646414621	 0.129806
134.554	298.486	348.1861	506.4317	857.9446	863.7108	901.2085	1019.7938	1092.3176	1145.3567	1154.4367	1171.3332	1251.5923	1346.703	1426.6666	1520.3876	1833.1077	2887.9115	3087.6852	3146.7888	3180.3615
O=CC1CO1	O=C[C@H]1CO1	
InChI=1S/C3H4O2/c4-1-3-2-5-3/h1,3H,2H2	InChI=1S/C3H4O2/c4-1-3-2-5-3/h1,3H,2H2/t3-/m0/s1
