10
gdb 3812	8.35327	2.18283	1.74983	3.3183	44.79	-0.2889	-0.0693	0.2195	651.6023	0.066433	-392.563319	-392.557499	-392.556555	-392.593219	19.722	
C	 0.0112126634	 1.3911759011	 0.0081351211	-0.246597
O	-0.0314258011	-0.0446136934	 0.003236006	-0.232278
C	-1.235333388	-0.5762093992	 0.0104372671	 0.528863
N	-2.3807806329	 0.050732261	 0.0214769997	-0.198097
O	-3.2938455639	-0.9651514226	 0.0247634091	-0.152729
N	-2.6237339084	-2.1770097689	 0.0148094891	 0.062149
N	-1.3874048093	-1.9501828741	 0.0065087635	-0.223777
H	 1.0682413379	 1.6526236127	 0.0009437833	 0.15369
H	-0.4894651489	 1.7896281807	-0.8788256539	 0.154388
H	-0.4757120389	 1.7831266727	 0.9055886151	 0.154386
121.1955	171.2277	235.4199	364.1128	502.1909	653.2952	725.5279	755.3972	776.5687	939.944	1047.6884	1064.7832	1104.3689	1180.7573	1226.7742	1339.0709	1462.2208	1483.9644	1495.5992	1524.3009	1645.3594	3047.0634	3122.512	3171.5371
COC1=NON=N1	COc1nonn1	
InChI=1S/C2H3N3O2/c1-6-2-3-5-7-4-2/h1H3	InChI=1S/C2H3N3O2/c1-6-2-3-5-7-4-2/h1H3
