13
gdb 2053	5.00787	2.70344	1.79408	4.2092	55.68	-0.2625	0.0034	0.2659	666.0868	0.102698	-344.494711	-344.488505	-344.487561	-344.525889	21.89	
O	 0.0396447755	 0.1687868144	 0.7643486955	-0.321995
C	 0.0004259969	 1.2013228774	 0.1533242038	 0.411513
C	-1.3025960219	 1.955122131	-0.0690183057	-0.394847
C	-1.1939594709	 3.2276772676	-0.8495803796	-0.062349
C	-0.0295161124	 3.6605585914	-1.3130441568	-0.078865
C	 1.2489097768	 2.9227504202	-1.0960884569	-0.100804
O	 1.1508928251	 1.7044785639	-0.3497486794	-0.229857
H	-1.9921292686	 1.2492701742	-0.5495949558	 0.151616
H	-1.733258281	 2.1316766054	 0.9249642017	 0.151618
H	-2.1077168097	 3.7882295799	-1.0245314022	 0.104398
H	 0.0534699024	 4.5833336395	-1.8797160705	 0.106105
H	 1.7108202185	 2.6627118634	-2.058422732	 0.131734
H	 1.9730962493	 3.5561103718	-0.5655555322	 0.131734
35.8216	98.6294	373.9853	446.7385	515.8052	549.5456	559.1531	687.5288	754.2375	901.1085	939.8011	968.0256	978.6753	1006.0847	1030.9199	1124.2878	1161.6885	1213.2543	1243.929	1261.4715	1351.7412	1416.1334	1430.4912	1450.2139	1504.1039	1755.8763	1843.7515	3009.8324	3032.1456	3032.2411	3053.9517	3162.9208	3185.129
O=C1CC=CCO1	O=C1CC=CCO1	
InChI=1S/C5H6O2/c6-5-3-1-2-4-7-5/h1-2H,3-4H2	InChI=1S/C5H6O2/c6-5-3-1-2-4-7-5/h1-2H,3-4H2
