15
gdb 1392	4.88295	1.31865	1.09265	2.8947	67.12	-0.2428	-0.0256	0.2172	1070.4587	0.12176	-308.508254	-308.499391	-308.498446	-308.544744	28.802	
C	-0.0216812465	 1.4962333593	 0.0007856216	-0.496837
C	-0.004807574	 0.0405605042	 0.0125871172	 0.040122
C	 0.0099627702	-1.1636587955	 0.0416618572	 0.072526
C	 0.0418518785	-2.6225033649	 0.018424034	-0.209052
C	-1.3781400785	-3.2374145188	-0.0071285279	-0.397224
C	 0.8014502892	-3.0925129205	-1.2256454763	 0.173528
O	 1.6796920604	-3.9115025326	-1.2143078738	-0.243582
H	 0.9943039812	 1.9055911736	-0.0101435562	 0.152633
H	-0.5446296619	 1.8805525237	-0.8817126276	 0.150572
H	-0.530279655	 1.8932626487	 0.8861250844	 0.15174
H	 0.5885321724	-3.0110177358	 0.8849469223	 0.121824
H	-1.3193783758	-4.3291844204	 0.0161481692	 0.131807
H	-1.9491613409	-2.8950343156	 0.8589931307	 0.136878
H	-1.9168336282	-2.9325693871	-0.9093984993	 0.130513
H	 0.451583909	-2.6158628182	-2.1690867255	 0.084552
4.4444	53.272	117.1619	132.5931	227.9376	290.551	291.8911	327.3331	448.8728	493.2849	517.1952	762.7106	885.6338	930.1383	1047.1253	1051.8795	1053.3215	1085.5713	1126.7843	1181.8399	1270.63	1327.8253	1398.0998	1414.7095	1417.1706	1477.0085	1478.3964	1492.2974	1497.4922	1839.0962	2367.2293	2880.7911	3029.126	3043.6989	3051.4278	3090.6985	3091.2316	3120.3801	3129.55
CC#CC(C)C=O	CC#C[C@@H](C)C=O	
InChI=1S/C6H8O/c1-3-4-6(2)5-7/h5-6H,1-2H3	InChI=1S/C6H8O/c1-3-4-6(2)5-7/h5-6H,1-2H3/t6-/m1/s1
