8
gdb 754	9.71668	4.11648	2.8915	1.7372	37.52	-0.2634	-0.0221	0.2413	408.4841	0.050594	-337.265273	-337.260902	-337.259958	-337.292965	15.318	
N	-0.1327920912	 1.3011938997	 0.0087857283	-0.56665
C	-0.0036281757	 0.0573317987	 0.0012757002	 0.527739
O	-1.0779713906	-0.8092714165	 0.0037692104	-0.171174
C	-0.5314661387	-2.0406214643	-0.006351795	 0.119622
N	 0.7436221267	-2.0855332355	-0.0152248511	-0.109905
O	 1.1254941942	-0.7140184913	-0.0103445225	-0.241232
H	 0.7713817942	 1.7660664622	 0.0052860516	 0.250768
H	-1.187753979	-2.896646653	-0.0065928319	 0.190831
211.3286	459.6997	594.6525	726.7073	741.1837	784.8146	887.3937	888.3325	913.7205	935.5714	1013.6682	1187.8591	1215.2925	1316.9128	1674.1375	1820.0457	3286.746	3550.2095
N=C1OC=NO1	[NH][C@H]1OC=NO1	
InChI=1S/C2H2N2O2/c3-2-5-1-4-6-2/h1,3H	InChI=1S/C2H3N2O2/c3-2-5-1-4-6-2/h1-3H/t2-/m0/s1
