14
gdb 2761	3.7004	2.64369	1.85821	3.5437	57.27	-0.2787	0.0209	0.2996	695.493	0.114188	-324.57985	-324.573162	-324.572218	-324.610462	24.543	
O	 0.4814026187	 0.967884334	-0.6658800974	-0.41734
C	 0.0603424655	-0.1651822261	 0.0191712824	 0.167371
C	-0.0213004143	-0.1867702782	 1.567741773	-0.258759
C	-1.2895828678	-1.0719948277	 1.4518108403	-0.227794
C	-1.4606320466	-0.6025382853	-0.030794639	-0.211831
C	-2.3260837219	 0.5549736964	-0.1731047272	 0.267197
N	-2.9560569316	 1.5201899257	-0.2782985023	-0.32909
H	-0.0978732888	 1.704631836	-0.4337506678	 0.296182
H	 0.6693882653	-0.9936246585	-0.3527921896	 0.1071
H	 0.8380632574	-0.5777252596	 2.1149196393	 0.113418
H	-0.2658118505	 0.8078062222	 1.9537239794	 0.119478
H	-1.0607366617	-2.1390587437	 1.485620373	 0.12065
H	-2.1177733174	-0.8623728803	 2.1280728392	 0.129937
H	-1.7305535464	-1.358074605	-0.7716461933	 0.123481
121.7107	131.4236	235.2683	342.8675	399.0328	440.3996	505.0738	628.3085	672.5369	748.9594	809.454	889.0068	922.2594	966.2212	1017.4149	1060.8218	1092.2856	1156.6306	1175.7525	1222.3063	1247.8585	1259.3814	1265.5778	1333.8861	1347.1208	1438.6348	1482.5017	1497.4728	2343.0977	3061.9902	3078.7528	3082.9658	3095.2916	3125.0339	3147.5583	3777.8703
OC1CCC1C#N	O[C@H]1CC[C@H]1C#N	
InChI=1S/C5H7NO/c6-3-4-1-2-5(4)7/h4-5,7H,1-2H2	InChI=1S/C5H7NO/c6-3-4-1-2-5(4)7/h4-5,7H,1-2H2/t4-,5-/m0/s1
