17
gdb 2864	6.04547	1.53453	1.39264	1.8188	62.15	-0.2344	0.0853	0.3197	927.6851	0.146083	-346.804974	-346.796793	-346.795849	-346.837591	28.422	
C	 0.3742930273	 1.1313145542	 0.3563419365	-0.228906
O	-0.367246183	 0.2562340064	-0.4682617331	-0.225231
C	 0.4239114507	-0.424237465	-1.3794282791	 0.095291
C	 1.1538340026	-1.6827374959	-0.9391620157	-0.362708
C	-0.0586920213	-1.7561608662	-1.8528539406	 0.095291
O	-1.2633948027	-2.2170031179	-1.347375492	-0.225231
C	-1.349801726	-3.6269666115	-1.3349558677	-0.228906
H	 1.1226803409	 0.5907807626	 0.9538796328	 0.107439
H	 0.8944539563	 1.9020532574	-0.2333319609	 0.10356
H	-0.3368221425	 1.6191661221	 1.0269076039	 0.128161
H	 0.9211612421	 0.214501886	-2.1128013258	 0.083547
H	 2.1422785345	-1.902833129	-1.3275604174	 0.109166
H	 0.9738152948	-1.9825475364	 0.0878305129	 0.125821
H	 0.1169001116	-2.005181802	-2.901776264	 0.083546
H	-1.2615827299	-4.0483531665	-2.3483520221	 0.10356
H	-0.568582696	-4.0768788936	-0.7052043894	 0.10744
H	-2.3308974494	-3.8842261346	-0.9292331783	 0.128161
79.5086	118.342	137.8535	191.4898	207.4944	268.3516	331.3421	393.4109	505.0725	646.3253	747.4669	828.9547	873.1692	989.3931	1019.899	1033.5722	1092.409	1096.1385	1133.1771	1164.4705	1172.5678	1182.433	1185.0711	1220.6722	1251.6899	1277.7819	1374.7822	1407.556	1462.6602	1480.8681	1485.3615	1486.4265	1497.0571	1506.8766	1512.3989	2978.5424	2979.6314	3029.5323	3029.9762	3067.4788	3080.1275	3118.8455	3119.1539	3131.2062	3226.2959
COC1CC1OC	CO[C@H]1C[C@H]1OC	
InChI=1S/C5H10O2/c1-6-4-3-5(4)7-2/h4-5H,3H2,1-2H3	InChI=1S/C5H10O2/c1-6-4-3-5(4)7-2/h4-5H,3H2,1-2H3/t4-,5+
