11
gdb 2559	3.76122	2.59832	1.70992	1.686	59.38	-0.2651	-0.0069	0.2583	704.2482	0.075031	-306.012858	-306.005974	-306.00503	-306.043396	25.208	
C	 0.0338686985	-1.1722308584	-0.018904969	-0.446936
C	 0.0043278429	 0.027732335	 0.0180079796	 0.276214
C	-0.0467996508	 1.4700994006	 0.0649792252	 0.118274
C	 0.5443059495	 2.1821751766	 1.2302096468	-0.201181
O	 1.2309813827	 2.1443216455	-0.0073996239	-0.251679
C	-1.1232786736	 2.0907781476	-0.6706809371	 0.276046
C	-2.0264681638	 2.5986402328	-1.2777014658	-0.446899
H	 0.0635407101	-2.2334194711	-0.0573220031	 0.206394
H	 0.1240535502	 3.1456703177	 1.5128694341	 0.131689
H	 0.9758191395	 1.5872417024	 2.0331303373	 0.131678
H	-2.8214351951	 3.0476245614	-1.8207658441	 0.2064
127.687	197.2262	218.8763	231.0063	462.1015	483.317	561.4304	591.0229	627.7926	632.2248	634.8404	669.1491	669.2834	825.487	900.4695	962.2568	1136.4446	1167.1293	1236.2569	1320.178	1511.1271	2244.5887	2248.6115	3088.4804	3187.1425	3500.0428	3500.699
C#CC1(CO1)C#C	C#CC1(CO1)C#C	
InChI=1S/C6H4O/c1-3-6(4-2)5-7-6/h1-2H,5H2	InChI=1S/C6H4O/c1-3-6(4-2)5-7-6/h1-2H,5H2
