13
gdb 3734	7.2626	2.01943	1.77465	5.837	54.5	-0.2805	-0.0133	0.2672	709.8487	0.103318	-336.802659	-336.796362	-336.795418	-336.833664	21.645	
C	 0.1511168303	 1.5360863769	 0.1591794005	-0.377481
C	-0.1118930438	 0.051837777	-0.0914798743	-0.152917
N	 0.6668406958	-0.4678093468	-1.2096320348	 0.042702
C	 1.8008752429	-1.1895487928	-1.2371291049	 0.060301
N	 2.1578627558	-1.3874173241	-2.4874923538	-0.222728
N	 1.2109985476	-0.7630287753	-3.23629867	-0.091782
N	 0.3160242746	-0.2085877286	-2.4869393491	-0.128226
H	 1.2010168266	 1.7129804151	 0.4093257519	 0.133788
H	-0.0976688744	 2.1217749815	-0.7288190302	 0.15731
H	-0.4660568701	 1.8853382702	 0.9917056464	 0.132121
H	 0.1423728902	-0.5509686485	 0.7844305814	 0.133306
H	-1.1645888652	-0.1237679225	-0.3256971346	 0.151903
H	 2.3143061497	-1.5447097722	-0.3585051383	 0.161702
43.9958	143.4323	217.5931	350.0516	403.8239	660.7752	690.7979	738.9971	792.8626	863.818	971.567	989.8813	1041.5291	1082.094	1111.6929	1129.1176	1194.9429	1229.9387	1308.187	1341.2648	1389.6877	1413.3001	1464.3886	1478.0441	1489.7669	1506.0295	1517.4483	3050.2068	3071.5908	3112.89	3127.6693	3141.1845	3282.6327
CCN1C=NN=N1	CCn1cnnn1	
InChI=1S/C3H6N4/c1-2-7-3-4-5-6-7/h3H,2H2,1H3	InChI=1S/C3H6N4/c1-2-7-3-4-5-6-7/h3H,2H2,1H3
