15
gdb 1969	7.64253	1.46646	1.31063	3.483	57.88	-0.2404	-0.0177	0.2227	882.5778	0.12355	-345.655968	-345.648615	-345.647671	-345.688146	26.192	
O	 0.0177656089	 1.3288083727	-0.3170883597	-0.419596
C	 0.0149971752	-0.051498507	 0.0098743749	-0.09005
C	-1.4287535902	-0.4976562003	 0.1219093854	 0.036217
C	-2.2583398837	-0.4863450044	-1.2005156324	-0.344458
C	-2.6259694063	-1.9527206754	-0.9274816241	 0.4041
O	-3.4000602612	-2.7221633527	-1.416530635	-0.287016
C	-1.6639770073	-2.0330184229	 0.2731704704	-0.375898
H	 0.9302788195	 1.6185565451	-0.4078141335	 0.289336
H	 0.5221658657	-0.6482752553	-0.7679607602	 0.081755
H	 0.5385945358	-0.2420435733	 0.960864342	 0.090665
H	-1.922531753	 0.0740465225	 0.911406748	 0.090782
H	-3.0991148242	 0.2080652047	-1.269308951	 0.133123
H	-1.6442320806	-0.3684373508	-2.1001360383	 0.132798
H	-0.7796929116	-2.6422190858	 0.0509726841	 0.127179
H	-2.1024315069	-2.3929494171	 1.2073344692	 0.131063
36.3564	110.7739	211.7983	266.0441	352.5161	411.0957	417.3751	495.3978	645.8127	672.6018	765.1261	901.935	912.3638	953.3817	1008.3534	1060.1299	1083.93	1103.391	1124.956	1188.0697	1192.4028	1225.7683	1245.404	1280.2693	1284.4945	1360.1987	1426.4286	1446.0952	1461.4569	1520.1493	1894.8201	2951.1128	2984.0879	3045.1442	3056.0367	3080.8201	3110.5953	3115.7893	3829.8329
OCC1CC(=O)C1	OCC1CC(=O)C1	
InChI=1S/C5H8O2/c6-3-4-1-5(7)2-4/h4,6H,1-3H2	InChI=1S/C5H8O2/c6-3-4-1-5(7)2-4/h4,6H,1-3H2
