12
gdb 4736	6.68915	1.36412	1.13306	2.5517	68.8	-0.2026	-0.0185	0.1841	960.1578	0.08457	-377.529309	-377.522448	-377.521504	-377.560112	26.095	
O	 0.1146097265	 1.3479598682	-0.0722716634	-0.440165
C	 0.0703423603	 0.0004174278	-0.0676889823	 0.336769
C	-0.0230927817	-0.8215659184	-1.1694614453	-0.195245
N	-0.0332248539	-2.0932815247	-0.6407655958	-0.287096
C	 0.0517274475	-1.9888621892	 0.7170952487	 0.191163
N	 0.1162183998	-0.7109109174	 1.0858916972	-0.388413
C	 0.0651842664	-3.1188449612	 1.561930058	 0.272346
C	 0.0746191332	-4.1012564893	 2.2583644752	-0.404435
H	 0.1791079527	 1.6208203512	 0.8512154933	 0.303915
H	-0.0799894809	-0.6230623866	-2.2247257305	 0.138519
H	-0.0926219065	-2.9552698515	-1.1564127469	 0.274417
H	 0.0840124467	-4.9584369491	 2.8851514319	 0.198226
144.43	150.2293	326.5168	385.505	394.8289	446.0685	540.8593	559.711	562.2408	569.5893	660.5901	689.7208	713.6391	738.1463	740.6001	1010.185	1038.1539	1109.8104	1180.6724	1276.6508	1333.4213	1421.7613	1446.012	1537.4326	1643.9832	2232.8101	3294.3119	3501.5787	3669.7366	3802.6538
OC1=CNC(=N1)C#C	Oc1c[nH]c(n1)C#C	
InChI=1S/C5H4N2O/c1-2-4-6-3-5(8)7-4/h1,3,8H,(H,6,7)	InChI=1S/C5H4N2O/c1-2-4-6-3-5(8)7-4/h1,3,8H,(H,6,7)
