15
gdb 1959	8.09937	1.41001	1.34165	2.352	58.03	-0.2509	-0.0229	0.228	878.0989	0.123924	-345.646914	-345.639701	-345.638757	-345.67851	25.835	
O	 0.6038070266	 0.6954487789	-0.7134344588	-0.427462
C	-0.068840388	-0.2382202077	 0.0853911966	 0.179543
C	 0.0989009613	-0.2070367191	 1.6276856656	-0.283315
C	-1.4211607067	-0.5565619638	 1.7730760628	-0.091527
C	-1.605503304	-0.1361816729	 0.2752835329	-0.283284
C	-1.6671919464	-2.0216200552	 2.0060899743	 0.171868
O	-2.3735991521	-2.472093708	 2.8711825446	-0.254189
H	 0.3872463662	 1.5783093063	-0.3942967794	 0.278271
H	 0.2100227225	-1.2165912415	-0.317320296	 0.10039
H	 0.8295876415	-0.882210738	 2.0800790757	 0.115241
H	 0.2917512612	 0.8082394905	 1.9881511665	 0.107136
H	-1.9853557918	 0.0110990355	 2.5137530419	 0.094903
H	-1.9480209657	 0.9013456957	 0.2110182559	 0.107143
H	-2.2451487755	-0.7543842206	-0.3596146034	 0.115261
H	-1.132298579	-2.70029255	 1.2979075809	 0.070022
77.4539	88.7485	260.0085	287.7828	312.6499	402.1675	416.9299	462.9117	670.1392	804.1039	865.7347	883.3386	897.7795	960.0329	985.5399	1040.853	1088.5386	1094.5064	1143.688	1194.3256	1202.0528	1251.3133	1263.7657	1283.8577	1308.8433	1341.4359	1435.4661	1442.9579	1464.2992	1489.4418	1831.0687	2837.6948	3051.4011	3054.5973	3068.228	3106.4118	3109.8811	3115.9844	3800.5663
OC1CC(C1)C=O	O[C@H]1C[C@@H](C1)C=O	
InChI=1S/C5H8O2/c6-3-4-1-5(7)2-4/h3-5,7H,1-2H2	InChI=1S/C5H8O2/c6-3-4-1-5(7)2-4/h3-5,7H,1-2H2/t4-,5-
