15
gdb 4941	6.55603	1.17926	1.01958	2.5223	63.66	-0.1853	0.0551	0.2404	1085.8006	0.119425	-399.822946	-399.815035	-399.814091	-399.855205	29.205	
O	 0.3568781374	 0.9843795935	 0.7724909614	-0.413735
C	 0.0217160739	 0.0588563081	-0.2529314771	-0.157149
C	-1.3971013328	-0.4218152272	-0.1622696733	 0.244569
C	-2.164563137	-0.4376442955	 0.9760602043	-0.187112
N	-3.401921544	-0.9625839409	 0.6425956685	-0.297638
C	-3.4158776323	-1.2703169628	-0.6847637046	 0.401607
O	-4.5610047974	-1.7907011796	-1.1956586714	-0.434823
C	-2.1957589527	-0.9511474302	-1.2299737385	-0.419206
H	-0.3226338792	 1.6673549625	 0.7589630914	 0.275992
H	 0.206395617	 0.482902279	-1.2540060519	 0.086615
H	 0.7309081131	-0.7696886049	-0.1318668758	 0.117224
H	-1.9342993772	-0.1413835489	 1.9850138921	 0.125381
H	-4.1874991358	-1.0831896521	 1.2574865441	 0.265072
H	-4.4224496791	-1.9629339269	-2.131580773	 0.307877
H	-1.9031077338	-1.073992134	-2.2618870363	 0.085325
69.33	164.8375	219.3158	225.7045	297.4349	349.5722	382.2456	446.2576	470.3371	622.1023	653.7981	675.5748	697.1189	741.3459	752.8477	975.1885	997.7984	1013.4865	1063.257	1115.5375	1162.0792	1185.6058	1206.892	1275.9591	1311.4871	1373.9655	1414.8806	1438.9813	1509.1396	1539.4907	1572.8324	1636.6662	2963.3006	3036.6547	3238.5713	3283.1586	3687.0605	3800.8379	3850.9248
OCC1=CNC(O)=C1	OCc1c[nH]c(O)c1	
InChI=1S/C5H7NO2/c7-3-4-1-5(8)6-2-4/h1-2,6-8H,3H2	InChI=1S/C5H7NO2/c7-3-4-1-5(8)6-2-4/h1-2,6-8H,3H2
