16
gdb 4079	4.60998	1.51082	1.18087	2.8095	74.1	-0.1886	-0.0087	0.1798	981.4502	0.132846	-379.899988	-379.892766	-379.891822	-379.931208	27.957	
O	-0.0596900724	 1.3783753697	 0.0417019988	-0.402883
N	 0.0639172339	-0.0261343922	 0.0010531177	-0.240604
C	-1.0870047659	-0.6009562916	-0.0285989355	 0.356125
C	-1.0837856901	-2.1151429223	-0.019879708	-0.274191
C	-2.2418122859	-2.6561319671	-0.86477326	-0.174669
N	-3.4949963702	-2.0716906165	-0.3965347669	-0.292277
C	-3.5064675888	-0.7170054268	-0.1633603626	-0.004254
C	-2.3895405875	 0.0316749348	-0.009071946	-0.186533
H	 0.8610204846	 1.6551746999	 0.0780539625	 0.30077
H	-0.126765165	-2.4924527696	-0.3860373738	 0.119915
H	-1.2091193651	-2.4667550944	 1.0125894024	 0.120644
H	-2.0680496064	-2.4050582448	-1.9238691375	 0.108216
H	-2.3057405082	-3.7448541512	-0.7816459331	 0.108513
H	-4.336270151	-2.4572381041	-0.7952004706	 0.243498
H	-4.4949202886	-0.2740098059	-0.0889833932	 0.111319
H	-2.4642457435	 1.0930693522	 0.1734846858	 0.106411
113.3125	230.7778	240.2756	320.572	350.0177	407.5205	416.4485	503.2588	524.3527	613.1037	658.6386	777.5839	794.5356	821.3802	897.5345	956.5019	967.8344	1016.2341	1026.4783	1077.2274	1124.6145	1207.1061	1232.2558	1272.4857	1284.9149	1349.2359	1362.9157	1404.8401	1432.3156	1470.603	1494.8204	1519.6557	1670.0905	1695.9727	2971.8712	3027.6148	3081.58	3113.4552	3180.0873	3248.333	3624.0657	3830.1645
ON=C1CCNC=C1	ON=C1CCNC=C1	
InChI=1S/C5H8N2O/c8-7-5-1-3-6-4-2-5/h1,3,6,8H,2,4H2	InChI=1S/C5H8N2O/c8-7-5-1-3-6-4-2-5/h1,3,6,8H,2,4H2
