15
gdb 4582	5.60746	1.47574	1.16979	1.9277	72.49	-0.1836	0.0043	0.1879	970.1908	0.120973	-362.729084	-362.722039	-362.721095	-362.759822	27.893	
N	 0.008980816	 1.4338340396	-0.0576883309	-0.594601
C	-0.0121041733	 0.028029448	-0.0419150031	 0.297172
C	-1.224927399	-0.6732306827	-0.0225542322	-0.163236
C	-1.2542731814	-2.060634739	-0.0726741704	-0.169929
C	-0.0664358008	-2.7874114922	-0.1441971129	 0.363874
O	-0.153824846	-4.1539996665	-0.1898347919	-0.452241
C	 1.1466771347	-2.1022341566	-0.1634793162	-0.238802
C	 1.1725600087	-0.7113031183	-0.1124631781	-0.159179
H	 0.8573878091	 1.8305741227	 0.3225516916	 0.240819
H	-0.7974828364	 1.8552273824	 0.3825960793	 0.241416
H	-2.1591373397	-0.1213710239	 0.029394644	 0.082378
H	-2.1963094392	-2.5970066409	-0.0552310421	 0.099495
H	 0.7348229237	-4.5193457117	-0.2413211735	 0.291952
H	 2.081549915	-2.6547996712	-0.2160658622	 0.079516
H	 2.1272975287	-0.1937776096	-0.1319682215	 0.081367
153.4232	238.6886	319.3421	328.4895	363.4997	419.1497	436.2028	470.7658	524.9723	657.3966	663.1726	728.3044	777.3013	812.6306	842.4845	861.3337	901.2071	934.4161	1020.9259	1086.1593	1147.649	1192.3929	1195.1823	1284.7733	1308.1037	1353.655	1366.5987	1489.6872	1553.1502	1638.0941	1653.5547	1672.1155	3150.5356	3165.184	3172.315	3198.3987	3548.0778	3641.8955	3829.8581
NC1=CC=C(O)C=C1	Nc1ccc(O)cc1	
InChI=1S/C6H7NO/c7-5-1-3-6(8)4-2-5/h1-4,8H,7H2	InChI=1S/C6H7NO/c7-5-1-3-6(8)4-2-5/h1-4,8H,7H2
