14
gdb 3701	3.59589	3.41248	1.78973	0.6497	58.7	-0.2461	0.0073	0.2534	693.1978	0.114674	-320.779994	-320.773005	-320.772061	-320.811211	24.293	
C	 0.0267420787	 1.5107212852	-0.048382335	-0.501343
C	 0.0075712456	 0.0185093531	 0.0073202772	 0.250436
N	-0.0303486704	-0.7331227671	-1.0951037466	-0.259277
N	-0.0354502889	-1.9724840151	-0.6211808535	-0.085644
N	-0.004304061	-2.1023810882	 0.6989716528	-0.259276
C	 0.0239280127	-0.8402514841	 1.1325145928	 0.250435
C	 0.065011439	-0.4998708883	 2.5860007133	-0.501343
H	 0.9273862124	 1.9182583968	 0.4245411173	 0.131904
H	 0.002561478	 1.8474696173	-1.0865678377	 0.145057
H	-0.834561439	 1.9426234067	 0.4736125124	 0.131848
H	-0.0618414914	-2.7723936364	-1.2312981223	 0.288395
H	 0.9619675108	 0.0772258796	 2.8376397243	 0.131895
H	-0.8000851914	 0.1046901308	 2.880932543	 0.131857
H	 0.0655474249	-1.4126156702	 3.184925112	 0.145057
80.5524	106.0457	231.459	254.1219	303.7355	420.4289	478.8012	646.146	719.421	722.1038	724.0376	966.6055	1016.0364	1026.611	1052.392	1082.208	1187.4535	1192.7593	1256.8757	1367.7205	1410.8955	1413.8334	1455.2913	1479.4096	1480.5308	1485.7651	1495.6342	1527.9339	1574.1205	3033.1891	3033.2076	3081.3896	3083.3927	3134.4118	3134.9236	3676.5687
CC1=NNN=C1C	Cc1n[nH]nc1C	
InChI=1S/C4H7N3/c1-3-4(2)6-7-5-3/h1-2H3,(H,5,6,7)	InChI=1S/C4H7N3/c1-3-4(2)6-7-5-3/h1-2H3,(H,5,6,7)
