15
gdb 3617	4.56054	3.64684	2.90719	1.6127	58.94	-0.2251	0.0957	0.3208	546.6478	0.127966	-308.483519	-308.478525	-308.477581	-308.511935	20.606	
C	-0.001010667	 1.5453458915	 0.071903791	-0.229038
C	 1.5245746964	 1.5398249713	-0.0254475331	-0.096571
C	 2.0737723288	 0.4724132493	 0.9017435217	 0.123078
O	 1.2896342561	 0.0415007342	 1.9946825314	-0.269757
C	 0.1202210889	-0.5792705177	 1.4414667359	-0.075594
C	 0.0287900552	-0.0185061552	 0.0239365499	-0.068263
C	 1.5216304978	 0.0525350763	-0.4126850382	-0.121415
H	-0.4520714702	 2.0046774235	 0.9585801402	 0.097881
H	-0.4596921082	 1.9656422931	-0.8263541004	 0.101796
H	 2.1489784209	 2.3397457683	-0.4078053297	 0.081389
H	 3.1380466864	 0.4584472755	 1.1035757613	 0.100178
H	 0.2335674238	-1.6746927577	 1.4397986087	 0.089497
H	-0.7370439767	-0.3135674982	 2.069094865	 0.105701
H	-0.6926183565	-0.5141467271	-0.6241612826	 0.074024
H	 2.0250605043	-0.4977653672	-1.1960701513	 0.087095
239.3322	376.9662	478.7433	635.3587	720.9009	750.6686	786.7276	815.5222	847.0327	880.4203	932.1558	939.6355	1001.5414	1004.535	1017.3963	1025.0832	1051.9089	1067.5046	1105.5528	1126.322	1159.8961	1193.0792	1226.0541	1236.2267	1276.0611	1287.8899	1322.6266	1368.3014	1409.8462	1494.7994	1511.592	2982.1254	3039.4274	3070.1685	3100.9904	3125.4721	3168.8328	3189.9034	3203.958
C1C2C3OCC1C23	C1[C@H]2[C@H]3OC[C@@H]1[C@@H]23	
InChI=1S/C6H8O/c1-3-2-7-6-4(1)5(3)6/h3-6H,1-2H2	InChI=1S/C6H8O/c1-3-2-7-6-4(1)5(3)6/h3-6H,1-2H2/t3-,4-,5+,6-/m1/s1
