14
gdb 669	6.33505	4.50061	3.19825	0.2073	57.35	-0.2245	0.0251	0.2495	467.6418	0.122084	-233.293627	-233.288816	-233.287872	-233.321386	19.325	
C	-0.0157164106	 1.4845918463	 0.0590758084	-0.271591
C	 1.307487787	 0.7671465294	 0.0100320579	-0.029305
C	 2.0037567	 0.4357070915	 1.33145167	-0.262113
C	 1.0114643682	-0.4668432283	 2.0377331731	-0.077841
C	-0.0486844131	-0.7425601691	 1.2739891192	-0.065907
C	 0.0112082051	-0.0297905194	-0.0351921851	-0.064967
H	-0.3433374469	 1.9243839051	 0.9959949839	 0.109183
H	-0.3055711405	 2.03794289	-0.8284815791	 0.106172
H	 1.9131550297	 0.8881727238	-0.880200108	 0.082597
H	 2.9601965946	-0.0783326197	 1.1638513275	 0.10444
H	 2.2378132276	 1.333650154	 1.9184157331	 0.106821
H	 1.1613472445	-0.815571595	 3.053398683	 0.089328
H	-0.8831242115	-1.3722109753	 1.5619037561	 0.090611
H	-0.3513441642	-0.5062309832	-0.93947361	 0.082572
285.2979	354.2197	484.9055	679.3896	740.4945	771.669	778.6389	811.9134	889.26	926.819	937.6479	956.8312	998.7093	1017.6984	1053.5882	1073.8312	1091.1208	1102.3393	1135.1275	1185.5476	1205.6807	1301.0809	1312.4365	1370.0991	1385.4227	1472.3754	1484.1215	1667.5897	3010.6045	3037.7828	3120.175	3164.9888	3178.3302	3184.1854	3208.5463	3210.243
C1C2CC=CC12	C1[C@H]2CC=C[C@@H]12	
InChI=1S/C6H8/c1-2-5-4-6(5)3-1/h1-2,5-6H,3-4H2	InChI=1S/C6H8/c1-2-5-4-6(5)3-1/h1-2,5-6H,3-4H2/t5-,6+/m0/s1
