13
gdb 3760	3.96556	3.57433	1.9084	3.6573	55.14	-0.2235	0.0286	0.2521	639.2559	0.104522	-336.843788	-336.837238	-336.836294	-336.874272	23.129	
C	-0.015738499	 1.4241371122	-0.0276767018	-0.337032
N	 0.0059459631	-0.0189579336	 0.0160139097	 0.005254
N	 0.0511775899	-0.7684081945	-1.131091449	-0.265714
C	 0.0312988767	-1.9974555757	-0.655708926	 0.032911
N	-0.0043652738	-2.1090906187	 0.7024303092	-0.334641
C	-0.0152729501	-0.8432400963	 1.0870759201	 0.403325
N	-0.1201918166	-0.3898145492	 2.3918970769	-0.600028
H	 0.9931638467	 1.8499801951	 0.0252208418	 0.137413
H	-0.4765780689	 1.7299944383	-0.9671892697	 0.165767
H	-0.6112112281	 1.801643472	 0.8079879518	 0.147573
H	 0.0467653324	-2.8553749592	-1.3117409213	 0.120634
H	-0.0407245959	-1.1614288355	 3.0410307773	 0.268509
H	 0.5220277736	 0.3528638552	 2.635211701	 0.256031
90.4871	177.162	265.9887	283.1536	304.4735	462.0887	654.2709	673.6378	696.9219	771.806	783.467	904.0139	988.0815	1020.1131	1101.4265	1151.1358	1223.9418	1256.5281	1299.0283	1326.1044	1435.8297	1466.6907	1490.9244	1506.4446	1568.3686	1587.1181	1653.4902	3031.3361	3102.9991	3154.5756	3255.1652	3548.6518	3644.5225
CN1N=CN=C1N	Cn1ncnc1N	
InChI=1S/C3H6N4/c1-7-3(4)5-2-6-7/h2H,1H3,(H2,4,5,6)	InChI=1S/C3H6N4/c1-7-3(4)5-2-6-7/h2H,1H3,(H2,4,5,6)
