16
gdb 701	9.20498	2.24291	2.01331	0.	60.97	-0.2473	0.0925	0.3399	665.6195	0.143702	-234.469389	-234.463258	-234.462314	-234.499031	23.14	
C	-0.2082939913	 1.3266806359	-0.2027088323	-0.269709
C	 1.2529281813	 1.1441283266	 0.1318808381	-0.269716
C	 0.3318175381	-0.0507421096	 0.0948229258	 0.030291
C	-0.0456214101	-0.7597844161	 1.3562675765	 0.030294
C	-0.9669434115	-1.954494414	 1.3192315052	-0.26971
C	 0.4942739627	-2.1373116976	 1.6536974277	-0.269717
H	-0.8447522981	 1.7901642785	 0.5442206165	 0.109036
H	-0.4778801144	 1.5686800003	-1.2249192573	 0.108307
H	 1.9830884724	 1.2612274189	-0.6614089631	 0.108307
H	 1.5964576658	 1.4851851528	 1.1032037519	 0.109036
H	 0.4459038291	-0.7099448977	-0.7630587839	 0.074448
H	-0.1595214753	-0.1006042504	 2.2141917156	 0.074448
H	-1.6970655757	-2.0715009476	 2.112569811	 0.108307
H	-1.3106004778	-2.2954483006	 0.347917618	 0.109036
H	 1.1305915731	-2.6008776583	 0.906698633	 0.109036
H	 0.7639062017	-2.3793977512	 2.6758753672	 0.108308
89.143	206.2419	244.923	368.6119	461.9808	725.425	778.0377	813.3522	813.9963	821.46	900.9815	901.8183	973.1213	985.0967	1018.6723	1057.5938	1062.5784	1074.8126	1076.3762	1124.088	1143.9634	1197.7987	1199.2482	1222.1915	1222.7083	1246.0136	1318.8089	1449.626	1468.9058	1469.7145	1502.28	1512.5433	3120.4004	3127.4205	3127.6208	3131.4967	3132.9843	3134.0961	3205.0171	3205.3365	3220.3224	3220.9434
C1CC1C1CC1	C1CC1C1CC1	
InChI=1S/C6H10/c1-2-5(1)6-3-4-6/h5-6H,1-4H2	InChI=1S/C6H10/c1-2-5(1)6-3-4-6/h5-6H,1-4H2
