19
gdb 4031	2.6326	1.54182	1.1674	1.4951	70.96	-0.2421	0.01	0.2521	1101.6544	0.162644	-402.162534	-402.152667	-402.151723	-402.196966	35.506	
C	 0.0631666366	 1.5321746623	-0.0896231134	-0.376906
C	-0.0191508655	 0.0005190934	 0.0545781162	-0.259413
C	-1.4434716632	-0.491729669	 0.010949195	 0.374486
N	-2.1440061778	-0.6395404449	-1.0473452988	-0.189032
O	-1.4168882524	-0.3316706511	-2.2101081389	-0.397744
C	-2.1503197231	-0.8578112922	 1.2988729104	 0.055951
C	-1.6847962019	-2.2172330532	 1.8353894787	-0.41445
O	-1.8752976134	 0.1895265128	 2.2283333868	-0.436152
H	 1.1058887472	 1.862559416	-0.0540464312	 0.107484
H	-0.3661882332	 1.8500816117	-1.0424624256	 0.133285
H	-0.4825993219	 2.0200138446	 0.7214412095	 0.136388
H	 0.5416940528	-0.4739698794	-0.756343897	 0.120054
H	 0.4330424219	-0.296839184	 1.0041932348	 0.104154
H	-2.0682248343	-0.4905140485	-2.9010843286	 0.305311
H	-3.2250689929	-0.9127352734	 1.0788939804	 0.085186
H	-2.1970976318	-2.4493762887	 2.7769351154	 0.107144
H	-1.9193375511	-3.0117157725	 1.1212740462	 0.132453
H	-0.6072164898	-2.2201104612	 2.0247809856	 0.127417
H	-2.2162816061	-0.0806418228	 3.0865763543	 0.284383
64.4126	93.943	161.2572	213.2777	227.4271	236.0278	253.8406	286.6019	315.9697	354.4395	388.3225	444.8423	516.9017	627.6353	678.6446	763.7831	808.4618	892.9479	974.5709	979.6936	1019.0285	1070.5282	1080.9237	1104.707	1134.7676	1208.1486	1273.2053	1302.496	1354.658	1361.8614	1381.1385	1400.6024	1402.0062	1434.6746	1475.807	1490.744	1498.4062	1501.4572	1512.6996	1731.3231	3012.8793	3028.3283	3046.9755	3055.6851	3097.4741	3102.1475	3118.7188	3123.3964	3139.2936	3822.5655	3823.0136
CCC(=NO)C(C)O	CCC(=NO)[C@@H](C)O	
InChI=1S/C5H11NO2/c1-3-5(6-8)4(2)7/h4,7-8H,3H2,1-2H3	InChI=1S/C5H11NO2/c1-3-5(6-8)4(2)7/h4,7-8H,3H2,1-2H3/t4-/m1/s1
