14
gdb 521	19.69511	1.20925	1.16405	1.514	57.94	-0.2431	0.0619	0.305	987.2389	0.117711	-270.405973	-270.397985	-270.397041	-270.439567	25.727	
C	 0.0069228733	 1.4682425986	 0.0248720309	-0.496223
C	-0.0032911533	 0.0139664094	-0.0491074272	 0.069897
C	-0.000078923	-1.1883701009	-0.1130028078	 0.039265
C	-0.0270461174	-2.6438448025	-0.1831552475	-0.320172
C	-1.4158849893	-3.2211034621	 0.1107051818	-0.062846
O	-1.3089403886	-4.6314554783	 0.0116584605	-0.415929
H	 0.7076178559	 1.8246247185	 0.7882113131	 0.146287
H	 0.3039604415	 1.9149015655	-0.9306028826	 0.146283
H	-0.9840609819	 1.8612718889	 0.2782472342	 0.145362
H	 0.2854203544	-2.9882369112	-1.1767552368	 0.133643
H	 0.6839643128	-3.0779194317	 0.5306553369	 0.133643
H	-1.7369399599	-2.9060064987	 1.1148174683	 0.096326
H	-2.1399190825	-2.8153203241	-0.6115955585	 0.096327
H	-2.1724181519	-5.0130369413	 0.1931641246	 0.288137
13.8108	90.3001	101.8602	222.0494	241.4615	286.3538	373.251	394.9752	494.0681	784.8643	794.6708	1001.5259	1051.4347	1054.0411	1079.6641	1091.1696	1168.3508	1221.6608	1238.3332	1303.7206	1334.8421	1415.6504	1454.0122	1479.0862	1479.7535	1479.8947	1527.7452	2375.9162	2982.0178	3012.3008	3024.8794	3027.251	3063.8534	3084.5696	3084.7244	3835.2695
CC#CCCO	CC#CCCO	
InChI=1S/C5H8O/c1-2-3-4-5-6/h6H,4-5H2,1H3	InChI=1S/C5H8O/c1-2-3-4-5-6/h6H,4-5H2,1H3
