16
gdb 2847	5.93175	1.43292	1.26083	3.204	62.62	-0.2479	-0.026	0.2219	955.8041	0.13579	-325.763216	-325.755517	-325.754573	-325.795514	27.06	
C	-0.0666328078	 1.5360438198	 0.0234009483	-0.379285
C	 0.009876155	 0.0264836593	 0.2783513497	-0.186401
C	-1.3492724368	-0.6282714684	 0.1555263938	 0.012757
N	-1.8036621072	-1.0073532493	-1.1755492534	-0.331365
C	-1.5783172916	-2.0781572128	-0.1789916339	-0.135828
C	-0.4595105812	-3.0147749742	-0.4755346063	 0.174261
O	-0.370475315	-4.1189065738	 0.0011810426	-0.259411
H	 0.9182970119	 2.0020656634	 0.1186625612	 0.118222
H	-0.4421277956	 1.7382404136	-0.9844918756	 0.130449
H	-0.737634566	 2.0264226658	 0.7376292918	 0.113824
H	 0.7026982732	-0.4313422977	-0.4336884629	 0.109603
H	 0.407473204	-0.1668165748	 1.2823679021	 0.107209
H	-2.0981048325	-0.2178156173	 0.834724829	 0.093733
H	-2.8001148952	-0.8489570788	-1.2943713953	 0.242908
H	-2.4324994806	-2.5559765496	 0.2950088831	 0.103762
H	 0.2945874754	-2.6187452551	-1.1892481843	 0.08556
72.0776	91.7743	181.7948	215.594	274.0232	316.6461	436.377	455.8718	533.9334	763.1337	802.4425	862.9555	913.3554	942.4652	987.0759	1034.7466	1037.1142	1068.2225	1103.788	1151.4942	1208.6358	1234.483	1251.0538	1307.5517	1345.0062	1368.9948	1407.7398	1423.6415	1470.666	1478.523	1498.0961	1507.1536	1821.0616	2904.5223	3034.2627	3037.0579	3081.185	3095.6872	3108.998	3114.5978	3145.2212	3515.7836
CCC1NC1C=O	CC[C@H]1N[C@H]1C=O	
InChI=1S/C5H9NO/c1-2-4-5(3-7)6-4/h3-6H,2H2,1H3	InChI=1S/C5H9NO/c1-2-4-5(3-7)6-4/h3-6H,2H2,1H3/t4-,5+/m1/s1
