10
gdb 4256	4.18955	2.1351	1.41432	4.821	51.61	-0.3044	-0.0812	0.2232	768.3713	0.061047	-450.642351	-450.636232	-450.635288	-450.673439	21.468	
N	-0.0628484973	 1.2937247754	-0.3279028464	-0.5165
C	-0.0095126673	 0.1201687311	 0.0946633832	 0.502716
O	 1.1921506501	-0.5521732693	 0.307336764	-0.205772
C	 1.1503717747	-1.815972205	 0.7654364751	 0.15036
N	 0.1180560726	-2.5035442189	 1.0403857729	-0.319286
C	-1.1261984796	-1.8992469372	 0.8533075842	 0.468514
O	-2.17656034	-2.408374492	 1.0644656392	-0.288074
O	-1.1264948746	-0.5771051936	 0.3745561273	-0.217134
H	 0.8678435473	 1.6714791428	-0.4878060796	 0.251077
H	 2.152402194	-2.2185239934	 0.8856128801	 0.1741
79.5334	93.7479	387.9589	403.3672	523.2078	569.1109	581.2521	708.207	762.8522	789.565	837.5217	910.7148	940.6725	1003.5962	1007.7016	1076.9625	1263.4242	1286.8425	1412.9909	1698.9312	1805.9365	1912.0411	3194.1125	3546.4194
N=C1OC=NC(=O)O1	[NH][C]1OC=NC(=O)O1	
InChI=1S/C3H2N2O3/c4-2-7-1-5-3(6)8-2/h1,4H	InChI=1S/C3H2N2O3/c4-2-7-1-5-3(6)8-2/h1,4H
