14
gdb 865	6.51354	2.06991	1.58627	0.8444	60.4	-0.1738	0.0626	0.2364	755.0624	0.113974	-324.615795	-324.608802	-324.607858	-324.646355	25.805	
C	-0.057389278	 1.495986568	 0.0635917003	-0.502044
C	-0.0069802613	 0.0098595458	-0.050006346	 0.296295
C	-0.0389552843	-0.8238889125	-1.1384411898	-0.201756
C	 0.0398236016	-2.1793625848	-0.6797104959	-0.291941
C	 0.1175337888	-2.1143736338	 0.688343628	 0.363202
O	 0.2110183634	-3.0506200736	 1.6696915166	-0.437807
N	 0.0898663511	-0.8039031864	 1.0716081678	-0.334433
H	 0.8396311163	 1.9112131716	 0.5420438203	 0.120848
H	-0.1311546014	 1.9378678263	-0.9329795699	 0.134917
H	-0.9232418211	 1.8438125334	 0.6426510742	 0.120887
H	-0.1115581846	-0.5023938767	-2.1666595242	 0.085561
H	 0.039049558	-3.0762151185	-1.2795729704	 0.08136
H	 0.2191038198	-3.9180268884	 1.2546378098	 0.305883
H	 0.1342442717	-0.4972458405	 2.027965139	 0.259029
128.9943	195.0815	220.2589	276.8735	313.9726	424.1925	446.4708	613.6917	629.0309	663.1268	708.0099	729.4907	795.735	986.3485	995.4888	1027.5298	1060.9758	1064.1298	1171.5737	1218.0549	1276.7129	1307.4973	1418.7451	1423.8105	1478.1274	1497.8345	1534.8916	1580.9652	1649.7916	3006.4945	3045.8217	3118.7081	3237.4283	3252.2074	3679.5123	3851.0893
CC1=CC=C(O)N1	Cc1ccc(O)[nH]1	
InChI=1S/C5H7NO/c1-4-2-3-5(7)6-4/h2-3,6-7H,1H3	InChI=1S/C5H7NO/c1-4-2-3-5(7)6-4/h2-3,6-7H,1H3
