10
gdb 3637	9.87528	1.98682	1.65404	4.3471	57.1	-0.2438	-0.015	0.2288	677.1945	0.068028	-318.32151	-318.315953	-318.315009	-318.350741	20.396	
C	 0.0585807424	-1.187867216	-0.0050970979	-0.435569
C	 0.0060576242	 0.0138147629	 0.0024432608	 0.287296
C	-0.0610602123	 1.4251473819	 0.0114509797	 0.20333
C	-1.1775148863	 2.2379486168	 0.0311987689	-0.189627
N	-0.6696596598	 3.4872006294	 0.0314281738	-0.150869
N	 0.6800274958	 3.475026822	 0.0133211393	-0.107204
N	 1.0532129541	 2.2349090266	 0.0012834516	-0.254339
H	 0.1113486797	-2.2483743053	-0.0118129383	 0.199209
H	-2.2323073524	 2.0251560071	 0.0441655841	 0.158417
H	-1.1553506952	 4.3701578546	 0.0429494781	 0.289356
171.087	179.2936	475.703	530.8804	582.3726	592.0627	595.3225	676.1202	693.7202	737.3948	812.1076	979.9343	1030.0175	1037.817	1128.4718	1245.8194	1301.8189	1342.8074	1484.8542	1561.9591	2246.0215	3294.9681	3504.2926	3656.1832
C#CC1=CNN=N1	C#Cc1c[nH]nn1	
InChI=1S/C4H3N3/c1-2-4-3-5-7-6-4/h1,3H,(H,5,6,7)	InChI=1S/C4H3N3/c1-2-4-3-5-7-6-4/h1,3H,(H,5,6,7)
