11
gdb 632	7.51963	2.90459	2.40633	2.4867	42.9	-0.2507	0.012	0.2627	523.6706	0.084825	-322.435505	-322.429655	-322.42871	-322.464827	20.679	
N	 0.1749542819	 1.1011505445	-0.513338987	-0.526725
C	-0.1767258995	 0.1090559138	 0.3493836629	 0.370749
O	 0.1863626626	 0.0266157802	 1.5055718335	-0.359093
C	-1.1263780891	-0.9051322806	-0.2450222683	-0.010679
C	-2.4316096596	-0.4847792079	-0.7835811271	-0.164827
O	-1.3600598886	-0.8427498198	-1.6562090692	-0.23557
H	 0.8698486778	 1.7662448627	-0.2169557975	 0.264886
H	-0.0156638177	 0.9817182959	-1.4952280725	 0.272923
H	-1.0263789547	-1.901539709	 0.1783088014	 0.124994
H	-3.2663007277	-1.182407545	-0.7588404525	 0.132345
H	-2.6939785254	 0.5711101553	-0.7737952738	 0.130996
105.8708	256.5631	272.6314	383.9262	472.6952	538.6846	621.5995	751.2414	796.2849	869.179	925.1477	1019.5419	1084.8663	1107.3905	1158.0074	1166.55	1260.7439	1346.5218	1409.9912	1518.8905	1597.9302	1810.7578	3095.5965	3154.3911	3189.8556	3590.8175	3728.126
NC(=O)C1CO1	NC(=O)[C@H]1CO1	
InChI=1S/C3H5NO2/c4-3(5)2-1-6-2/h2H,1H2,(H2,4,5)	InChI=1S/C3H5NO2/c4-3(5)2-1-6-2/h2H,1H2,(H2,4,5)/t2-/m1/s1
