15
gdb 520	10.01609	1.67405	1.47386	2.8394	57.34	-0.2447	0.0282	0.2729	829.3437	0.129694	-287.683128	-287.675482	-287.674538	-287.715221	25.268	
C	-0.4388032803	 1.2265282057	 0.4058322673	-0.396357
C	 0.3775046246	 0.0324098024	-0.1005755815	-0.109356
N	 0.6607716264	-1.0645541359	 0.8086904893	-0.222719
C	 0.2461906666	-1.0417712498	 1.9937102386	 0.130893
O	 0.5209501645	-2.0740850652	 2.8239743394	-0.193562
C	 0.0067583015	-1.9497432066	 4.1420590081	-0.249403
H	 0.0550253298	 1.7352141396	 1.2408497777	 0.117973
H	-0.5581513063	 1.9555375231	-0.4013670739	 0.115674
H	-1.4406714694	 0.928087606	 0.7330557715	 0.117973
H	-0.1245795549	-0.4012850367	-0.9758817138	 0.112728
H	 1.3447692198	 0.3916145804	-0.4770203965	 0.112724
H	-0.3439798695	-0.2430983989	 2.4624452367	 0.072102
H	 0.4195765997	-1.0730817322	 4.6572229442	 0.123436
H	-1.088728824	-1.8845904638	 4.1454071653	 0.123426
H	 0.3097643717	-2.8505548582	 4.6773711975	 0.144467
47.0512	126.8732	161.7397	163.3276	245.4538	330.5996	349.2543	490.8217	570.1666	779.2704	892.928	982.5558	1037.2923	1080.0951	1096.8704	1147.3117	1176.4977	1181.3894	1274.922	1315.1114	1378.9766	1398.0735	1421.2629	1479.1715	1489.0527	1494.0058	1496.1782	1501.891	1506.571	1783.4338	3005.4026	3013.5981	3027.3035	3033.2241	3035.9331	3068.309	3099.1395	3106.7904	3141.2233
CCN=COC	CCN=COC	
InChI=1S/C4H9NO/c1-3-5-4-6-2/h4H,3H2,1-2H3	InChI=1S/C4H9NO/c1-3-5-4-6-2/h4H,3H2,1-2H3
