15
gdb 3232	5.40373	2.65679	2.33002	1.8898	59.89	-0.2262	0.0691	0.2953	631.0308	0.124448	-308.444609	-308.43855	-308.437606	-308.473978	24.103	
C	-0.085057699	 1.5141382141	 0.0533274118	-0.504034
C	 0.1325785765	 0.0394541209	 0.0115522121	 0.420027
O	-0.8053489768	-0.8238990607	 0.67874786	-0.283645
C	 0.5956162688	-0.9484567441	 0.9822348006	-0.054352
C	 1.2941658515	-1.7839653478	-0.1358774964	-0.084771
C	 0.3196595661	-2.1897931222	-1.2087749627	-0.284746
C	 0.8052001068	-0.7656162301	-1.1575878237	-0.128301
H	 0.8331030146	 2.0476819578	-0.2141169081	 0.125889
H	-0.8647101832	 1.8123400325	-0.6573070991	 0.131593
H	-0.3947617791	 1.826035767	 1.0542246116	 0.134099
H	 0.8896618718	-0.8645719647	 2.0221666899	 0.101499
H	 2.2833707749	-2.2095711769	-0.0346535774	 0.091762
H	 0.7484965535	-2.785814432	-2.0082283289	 0.109318
H	-0.7052493963	-2.4253732	-0.9523835885	 0.135765
H	 1.3657728598	-0.2977024639	-1.9563424512	 0.089896
198.0073	226.6498	286.8771	417.8018	457.4321	564.4061	624.8828	729.6541	751.0515	774.7042	848.8063	871.4433	915.5895	933.7377	966.1287	999.6369	1013.7144	1050.887	1071.0288	1099.073	1108.3812	1164.4986	1184.113	1265.2306	1270.7232	1305.5178	1405.0557	1457.1617	1472.3014	1485.9343	1502.6478	3031.3694	3092.6688	3121.3199	3139.8992	3181.596	3195.5063	3207.3536	3233.5247
CC12OC1C1CC21	C[C@]12O[C@H]1[C@H]1C[C@@H]21	
InChI=1S/C6H8O/c1-6-4-2-3(4)5(6)7-6/h3-5H,2H2,1H3	InChI=1S/C6H8O/c1-6-4-2-3(4)5(6)7-6/h3-5H,2H2,1H3/t3-,4+,5-,6+/m0/s1
