13
gdb 4442	3.57587	1.8841	1.24472	3.7963	56.86	-0.198	0.0458	0.2438	901.4069	0.094678	-435.795216	-435.787395	-435.786451	-435.827306	27.623	
C	 0.0411617685	 1.5445864132	 0.0177078479	-0.507441
C	-0.0345834707	 0.0614948698	 0.0271540858	 0.184006
C	-1.0719066162	-0.7812060546	-0.0448286328	 0.317591
O	-2.3925184023	-0.5507237116	-0.0924253576	-0.422254
O	-0.6601794336	-2.092414315	 0.0006596107	-0.245989
C	 0.7345848669	-2.1032798517	 0.1072854875	 0.485534
O	 1.3946827417	-3.1042485848	 0.150613517	-0.398864
N	 1.0950207373	-0.7858397919	 0.1428743903	-0.424207
H	 0.6748371439	 1.9148553792	-0.7977319179	 0.133323
H	-0.9599172803	 1.9590950459	-0.1182134246	 0.154404
H	 0.4457681887	 1.9422792192	 0.9568153346	 0.136283
H	-2.8159074198	-1.2837661442	-0.5561618327	 0.314465
H	 2.055347386	-0.4973759636	 0.2029084117	 0.273149
140.1013	144.9785	173.4276	228.041	245.7945	263.9461	354.8544	435.7201	584.9221	626.2954	635.1882	662.3868	755.2463	839.0644	930.3757	994.7115	1057.6158	1070.38	1213.7058	1257.379	1319.0194	1355.6492	1415.6768	1448.62	1478.0364	1499.0351	1816.6921	1909.8854	3017.9693	3062.5983	3130.8974	3695.3955	3795.0216
CC1=C(O)OC(=O)N1	Cc1c(O)oc(=O)[nH]1	
InChI=1S/C4H5NO3/c1-2-3(6)8-4(7)5-2/h6H,1H3,(H,5,7)	InChI=1S/C4H5NO3/c1-2-3(6)8-4(7)5-2/h6H,1H3,(H,5,7)
