13
gdb 1439	9.37456	1.39573	1.23338	2.0283	56.09	-0.2674	0.0102	0.2776	921.1028	0.098887	-344.450127	-344.442124	-344.44118	-344.483374	26.66	
C	-0.0764939635	 1.3627667556	 0.1246778641	-0.240034
O	 0.0260967699	-0.0587161146	-0.0364273375	-0.232374
C	 0.663213409	-0.4652316344	-1.1528671054	 0.462365
O	 1.1253607332	 0.2747397347	-1.9769971001	-0.336191
C	 0.6911040524	-1.9928647588	-1.1808140838	-0.50629
C	 1.3561033396	-2.5522775325	-2.3449297951	 0.33574
C	 1.9001445854	-3.0402000188	-3.2968618926	-0.435263
H	 0.9163247155	 1.8172435088	 0.1689692659	 0.143867
H	-0.6286801039	 1.8051454612	-0.7081446879	 0.143865
H	-0.6100823108	 1.5166936843	 1.0624453683	 0.135485
H	 1.170346269	-2.3315815883	-0.2539027527	 0.164047
H	-0.346282598	-2.3435625981	-1.1145015625	 0.164042
H	 2.384458272	-3.4577568892	-4.1444652606	 0.200741
26.7835	108.118	130.5608	160.5094	275.9982	324.7297	376.5581	446.6238	580.0617	631.6613	658.2104	711.0903	897.909	958.3181	965.6468	1046.9232	1179.6914	1197.1229	1216.5944	1218.6964	1353.5263	1441.3095	1472.7827	1481.0689	1497.7839	1841.8864	2254.7734	3035.4256	3053.3276	3064.4957	3128.7877	3161.3885	3508.0084
COC(=O)CC#C	COC(=O)CC#C	
InChI=1S/C5H6O2/c1-3-4-5(6)7-2/h1H,4H2,2H3	InChI=1S/C5H6O2/c1-3-4-5(6)7-2/h1H,4H2,2H3
