17
gdb 3272	3.55986	3.03433	1.84726	0.9774	60.26	-0.2436	0.0839	0.3276	712.4139	0.150141	-346.842403	-346.835695	-346.834751	-346.87358	24.847	
C	 0.019704258	 1.4752550872	 0.2141744918	-0.228536
C	 1.3883277226	 2.1059050882	-0.0678722965	-0.055032
O	 2.3461143039	 2.0291677144	 0.9717183451	-0.260667
C	 2.4766772966	 0.8258544663	 1.7121937184	-0.057069
C	 2.1191728827	-0.484685611	 1.0116534626	-0.10009
O	 0.732007845	-0.7645874204	 1.0088396255	-0.239141
C	-0.0147739913	-0.0468261525	 0.0472030173	-0.067728
H	-0.3260907694	 1.7563560533	 1.2157191195	 0.114873
H	-0.6946506252	 1.9007253603	-0.5027057342	 0.101313
H	 1.7915423284	 1.6711316071	-0.9988821339	 0.083478
H	 1.2675933047	 3.1791229165	-0.2485150084	 0.107844
H	 3.5299437982	 0.7829867508	 2.0160541242	 0.103739
H	 1.8698369508	 0.8769831918	 2.6297098534	 0.098963
H	 2.5334817352	-0.5120420994	-0.0092982433	 0.095309
H	 2.5824667084	-1.2995420393	 1.5786979643	 0.110504
H	-1.0413286512	-0.4136928886	 0.1450127453	 0.107783
H	 0.3345093726	-0.3020807347	-0.9693467112	 0.084456
41.5854	189.2892	294.4474	348.6779	372.7102	408.3217	522.9869	551.7084	757.0261	834.7523	868.5831	899.2472	972.9961	996.5212	1028.3587	1053.2399	1092.7953	1142.3494	1157.1366	1192.0598	1236.2468	1265.0338	1310.1717	1313.6957	1347.4427	1374.0634	1384.8782	1410.4138	1419.3272	1431.691	1461.374	1480.3662	1495.3366	1499.3241	1514.2048	2945.9465	2953.2312	2979.3908	2988.7428	3026.2802	3048.7641	3066.4154	3071.16	3075.6673	3080.1681
C1COCCOC1	C1COCCOC1	
InChI=1S/C5H10O2/c1-2-6-4-5-7-3-1/h1-5H2	InChI=1S/C5H10O2/c1-2-6-4-5-7-3-1/h1-5H2
