15
gdb 966	3.62755	3.21941	1.7398	1.0524	63.33	-0.1911	0.0569	0.248	714.7866	0.126567	-304.735224	-304.727928	-304.726984	-304.76661	26.48	
C	 0.0836488068	 1.5186869388	 0.0170767496	-0.50763
C	 0.0473165645	 0.0206272529	 0.0189598523	 0.260081
C	-0.041277057	-0.7930937345	-1.0954900789	 0.149871
N	-0.1212233769	-0.5435083213	-2.4882321907	-0.616028
N	-0.0463396119	-2.0996431583	-0.6627790668	-0.23867
C	 0.0369344975	-2.1413509073	 0.7024900311	-0.088273
C	 0.0963661801	-0.8432754922	 1.1538623847	-0.240083
H	 1.0035795609	 1.9082020486	 0.4695131047	 0.12233
H	 0.0304170185	 1.9096283578	-1.0042727319	 0.099963
H	-0.7540517156	 1.9509901359	 0.5774963307	 0.122328
H	-0.9408067969	 0.0044614883	-2.7283872778	 0.241715
H	 0.6886329144	-0.0360226125	-2.829203965	 0.24171
H	-0.1041662728	-2.883119056	-1.2899174371	 0.256842
H	 0.0469942907	-3.0788667139	 1.2345876267	 0.111967
H	 0.1676064278	-0.5376421264	 2.1874445885	 0.083877
69.2513	116.455	232.0761	260.6097	280.3379	437.5349	500.6723	634.6164	645.0864	658.4284	708.9599	728.476	802.1591	821.2669	915.1725	984.3961	1061.6789	1077.7491	1106.282	1197.9142	1207.737	1262.8081	1308.2886	1414.4127	1434.9045	1486.8761	1486.9504	1499.4525	1505.9331	1622.9738	1663.6467	3018.9498	3066.0459	3092.7601	3235.0263	3267.2612	3499.1739	3562.5809	3681.6774
CC1=C(N)NC=C1	Cc1c(N)[nH]cc1	
InChI=1S/C5H8N2/c1-4-2-3-7-5(4)6/h2-3,7H,6H2,1H3	InChI=1S/C5H8N2/c1-4-2-3-7-5(4)6/h2-3,7H,6H2,1H3
