16
gdb 1533	4.40598	1.74905	1.51822	2.1624	58.38	-0.2558	0.0201	0.2759	867.5163	0.135226	-362.897428	-362.889055	-362.888111	-362.931065	28.103	
C	-0.5600616918	 0.5045866775	-0.409939707	-0.23226
O	 0.5053076313	 0.3400830277	-1.3213288504	-0.217199
C	 1.5443172115	-0.4672620134	-0.8248432966	-0.126471
C	 1.1724606263	-1.9319763513	-0.6526737342	 0.364717
N	 1.5074098133	-2.5630858123	 0.3952022905	-0.520724
O	 0.510378227	-2.3852074119	-1.7455322881	-0.211897
C	 0.1011139104	-3.7445872971	-1.7482884923	-0.264199
H	-1.0650393397	-0.4464560739	-0.1866625173	 0.109425
H	-0.2171157488	 0.9439323502	 0.5393583913	 0.108937
H	-1.2780358889	 1.1824300292	-0.8772844137	 0.127989
H	 2.3540548597	-0.400502245	-1.5600887551	 0.12425
H	 1.9198784314	-0.1133412509	 0.1443863662	 0.116055
H	 1.25177704	-3.5496490559	 0.3659528376	 0.21599
H	 0.962537767	-4.4222918132	-1.7025772991	 0.130632
H	-0.571543003	-3.961571069	-0.9095747749	 0.130554
H	-0.4300479556	-3.8992951205	-2.6879350068	 0.144199
33.1013	94.3406	140.3581	181.3711	218.2424	239.8864	337.0936	401.6948	464.6768	559.0001	707.1225	830.0011	879.4652	956.9465	1021.0146	1062.6721	1128.8211	1154.4285	1175.4963	1181.1521	1218.0866	1225.1599	1304.6974	1347.0596	1391.3227	1469.1836	1473.5105	1484.4534	1487.8318	1492.4148	1504.4699	1505.4157	1730.96	2981.2204	3013.9521	3021.5736	3031.5894	3076.5287	3077.9013	3118.1712	3145.2476	3489.8352
COCC(=N)OC	COC[C]([NH])OC	
InChI=1S/C4H9NO2/c1-6-3-4(5)7-2/h5H,3H2,1-2H3	InChI=1S/C4H9NO2/c1-6-3-4(5)7-2/h5H,3H2,1-2H3
