11
gdb 2967	3.77145	2.72206	1.7771	1.3167	48.39	-0.2586	-0.1017	0.157	669.6678	0.076098	-380.372123	-380.365414	-380.364469	-380.403315	22.428	
O	 0.9252356838	 2.4441967908	-1.6612919074	-0.212405
C	 0.8857802894	 1.5506152358	-0.8587320613	 0.086488
C	 1.2710534835	 1.6712086437	 0.6254858038	 0.291003
O	 1.6223543463	 0.6555841612	 1.1824610177	-0.280444
C	 1.2198091133	 2.9861788772	 1.3328921332	-0.026213
C	 1.5436887204	 4.2684029738	 0.6638000119	-0.174061
O	 0.20008925	 3.900935577	 0.9260027346	-0.212396
H	 0.6414066325	 0.5010851439	-1.1268612881	 0.118118
H	 1.3752829038	 2.8959619886	 2.406828109	 0.123164
H	 1.942109575	 5.068060631	 1.2864022137	 0.132285
H	 1.827653082	 4.2688448771	-0.383420587	 0.15446
87.7308	112.837	188.6689	263.3518	339.8437	436.8191	561.2197	637.2158	762.3853	868.9987	894.376	995.6931	1013.8712	1097.4804	1166.4999	1172.308	1251.0926	1287.6995	1369.2655	1399.4253	1504.5025	1790.2057	1824.6024	2924.4105	3101.0852	3135.3427	3216.1108
O=CC(=O)C1CO1	O=CC(=O)[C@H]1CO1	
InChI=1S/C4H4O3/c5-1-3(6)4-2-7-4/h1,4H,2H2	InChI=1S/C4H4O3/c5-1-3(6)4-2-7-4/h1,4H,2H2/t4-/m1/s1
