16
gdb 2156	3.58744	2.99509	1.74506	3.654	60.72	-0.2366	0.037	0.2736	729.3758	0.138754	-325.833945	-325.827092	-325.826148	-325.864649	25.373	
C	-0.0822821525	 1.5744713491	-0.012870552	-0.399407
C	 0.0932383505	 0.0590977882	-0.0097214787	-0.086346
C	 0.8411605833	-0.5505423759	-1.2088575875	-0.219689
C	 1.5075263936	-1.819554395	-0.6336314652	-0.169906
N	 1.6961174347	-1.4595870066	 0.7612215598	-0.306043
C	 0.8972661057	-0.4393825077	 1.2031795194	 0.414284
O	 0.8326836249	-0.0228745061	 2.3399045276	-0.388701
H	 0.8787507006	 2.0788540782	-0.1603535022	 0.117737
H	-0.7602245289	 1.8959769068	-0.8093165476	 0.109831
H	-0.4871929171	 1.9020798881	 0.9480349709	 0.141901
H	-0.895299798	-0.4140039904	 0.0825972912	 0.099848
H	 0.1962408804	-0.7725312499	-2.06170089	 0.106765
H	 1.6161452035	 0.145941733	-1.5473996196	 0.111784
H	 0.8567063631	-2.6997187307	-0.7419638245	 0.105312
H	 2.4607205822	-2.049074409	-1.1200765488	 0.113196
H	 2.2058926041	-2.0267285419	 1.4198138472	 0.249435
111.5702	181.3446	208.1644	252.2941	369.1626	478.088	527.274	568.5548	689.796	707.5544	783.1303	854.0157	923.362	954.8822	983.7311	1066.99	1072.0788	1134.9671	1158.781	1204.506	1229.8562	1256.3385	1312.659	1314.4088	1346.0344	1376.651	1409.5123	1445.772	1491.8114	1497.1841	1499.4234	1535.3182	1826.6079	2993.2579	3005.3886	3037.4199	3048.663	3069.0948	3103.3687	3110.7334	3124.7568	3641.4357
CC1CCNC1=O	C[C@H]1CCNC1=O	
InChI=1S/C5H9NO/c1-4-2-3-6-5(4)7/h4H,2-3H2,1H3,(H,6,7)	InChI=1S/C5H9NO/c1-4-2-3-6-5(4)7/h4H,2-3H2,1H3,(H,6,7)/t4-/m0/s1
