14
gdb 2476	5.29239	2.73393	2.46416	2.0133	56.61	-0.2197	-0.0129	0.2069	589.838	0.115987	-324.55226	-324.547035	-324.546091	-324.581099	20.824	
O	 0.0321170886	 0.0503006786	-0.0428706518	-0.326996
C	 0.0277811724	 1.2496786755	-0.00292142	 0.423835
C	-1.1686715509	 2.2341192231	 0.0335431457	-0.285729
N	-0.4613050503	 3.5453680344	 0.0750038092	-0.121588
C	 0.6192732126	 3.2985525915	-0.9639721448	-0.187825
C	 1.1877306032	 2.2387955031	 0.0264090752	-0.139643
C	 0.6256260383	 3.2302309648	 1.0885658299	-0.187826
H	-1.7995338468	 2.1514760322	-0.855863578	 0.132329
H	-1.7940484607	 2.0923841952	 0.9193629074	 0.132328
H	 0.2595707074	 2.9748270257	-1.9445943718	 0.115492
H	 1.2539293331	 4.1815633084	-1.0652374319	 0.120951
H	 2.1977342587	 1.833947703	 0.0098071714	 0.088229
H	 1.261078219	 4.1046836435	 1.2443992319	 0.120951
H	 0.2719272853	 2.8419381912	 2.0476955976	 0.115492
165.2802	436.5754	441.115	512.1736	609.7192	616.4814	746.3287	815.6175	829.6681	851.1066	877.3893	976.8701	991.5047	1004.5616	1012.0106	1045.8171	1087.1352	1156.5019	1176.1765	1206.4787	1224.7834	1235.4416	1254.4225	1263.8268	1313.1932	1468.5513	1500.7016	1533.7794	1875.9926	3057.3609	3059.2622	3065.8775	3114.1465	3122.1806	3123.0493	3141.4541
O=C1CN2CC1C2	O=C1CN2C[C@H]1C2	
InChI=1S/C5H7NO/c7-5-3-6-1-4(5)2-6/h4H,1-3H2	InChI=1S/C5H7NO/c7-5-3-6-1-4(5)2-6/h4H,1-3H2
