12
gdb 4425	4.15642	2.03038	1.36405	3.2243	60.05	-0.2345	-0.0423	0.1922	814.8301	0.087606	-410.900176	-410.894074	-410.89313	-410.930527	23.053	
O	-0.0941627893	 1.2977319619	 0.0107732921	-0.390902
C	 0.0292655363	-0.0270711062	 0.0024524729	 0.532332
N	 1.2045715328	-0.5921226121	-0.0071963856	-0.391415
C	 1.1479064935	-1.9632540257	-0.0148245356	 0.069656
N	 0.1017088837	-2.7296657424	-0.0135561548	-0.298632
C	-1.1480522549	-2.1217085825	-0.0032535305	 0.416952
N	-2.288152556	-2.6848572197	-0.0003375589	-0.558117
N	-1.1264142784	-0.7032660774	 0.0048230167	-0.346175
H	 0.8070037103	 1.6531070919	 0.0079345957	 0.322334
H	 2.1199051443	-2.4531460728	-0.0228904393	 0.12857
H	-2.1525086161	-3.6944336433	-0.0069163432	 0.230559
H	-2.0146378661	-0.2208318716	 0.0124275905	 0.284838
125.9016	205.0597	361.6981	430.6727	495.8295	558.2101	564.7816	599.4894	657.9922	749.0519	788.8564	823.2178	864.004	951.0955	1021.3836	1029.604	1063.4417	1191.1961	1270.6165	1315.9341	1349.6378	1423.6064	1542.663	1600.2651	1680.9019	1745.2592	3155.7414	3515.358	3609.6656	3763.6078
OC1=NC=NC(=N)N1	O[C@@H]1N=CN=C([NH])N1	
InChI=1S/C3H4N4O/c4-2-5-1-6-3(8)7-2/h1H,(H3,4,5,6,7,8)	InChI=1S/C3H5N4O/c4-2-5-1-6-3(8)7-2/h1,3-4,8H,(H,5,6,7)/t3-/m1/s1
