15
gdb 1387	4.63524	1.40461	1.1336	0.7609	71.21	-0.2471	0.0411	0.2883	1049.7488	0.121897	-271.326117	-271.317342	-271.316398	-271.360595	29.904	
C	-0.0236122424	 1.4979104422	 0.0421867429	-0.496941
C	-0.00263471	 0.0426258071	 0.0040776972	 0.038759
C	 0.0235636545	-1.1597642102	-0.0319495219	 0.114893
C	 0.0264880405	-2.6270820423	-0.0642977865	-0.318262
C	-1.4132380186	-3.1965470338	 0.0039777249	-0.375869
C	 0.7377628816	-3.1395397795	-1.2417509723	 0.347659
C	 1.302926455	-3.5847563997	-2.2036116114	-0.473475
H	 0.9916289644	 1.909622089	 0.0405449785	 0.149965
H	-0.5500342196	 1.9106603164	-0.8253878708	 0.149464
H	-0.528889609	 1.8654800084	 0.9421447826	 0.147538
H	 0.5637196716	-2.9847954287	 0.8265269594	 0.133165
H	-1.384536379	-4.2890417777	 0.0163375596	 0.125274
H	-1.9108959101	-2.8399502371	 0.9091793017	 0.124636
H	-1.9898806908	-2.870601466	-0.8644224055	 0.136297
H	 1.8121404219	-3.9682753482	-3.0527115885	 0.196897
16.573	88.7566	131.7559	192.1522	229.2474	273.1326	301.7918	379.8881	466.6798	525.326	559.0512	628.3416	641.3266	732.6251	862.9706	996.5896	1053.0324	1054.1032	1070.7183	1090.0863	1185.2236	1300.5339	1325.768	1401.9873	1414.8574	1478.3823	1478.8545	1488.7678	1496.6152	2240.5375	2377.1563	2994.6462	3027.7574	3050.2928	3088.5501	3089.2817	3130.6056	3137.1104	3505.3581
CC#CC(C)C#C	CC#C[C@@H](C)C#C	
InChI=1S/C7H8/c1-4-6-7(3)5-2/h2,7H,1,3H3	InChI=1S/C7H8/c1-4-6-7(3)5-2/h2,7H,1,3H3/t7-/m0/s1
