14
gdb 1428	5.32943	1.59416	1.25372	4.3756	58.19	-0.2587	-0.0171	0.2416	919.9046	0.110524	-361.742598	-361.734326	-361.733382	-361.775876	27.02	
C	 0.2001608275	 1.508518203	 0.2380381931	-0.330265
N	 0.2576921448	 0.067463981	 0.1434233445	-0.266309
C	 0.5903413984	-0.5350916493	-0.9092930491	 0.40765
C	 1.0335298925	-0.0393639795	-2.2574433159	-0.473734
O	 0.6122328087	-1.9245011907	-0.9249521435	-0.219402
C	-0.1298698275	-2.6230804819	-0.0104371203	 0.176626
O	-0.0334686714	-3.8079401977	 0.077359995	-0.261571
H	 0.8653010248	 1.8368390138	 1.0441897685	 0.139925
H	 0.4686068386	 2.055066876	-0.6749741148	 0.110328
H	-0.8145032351	 1.8049583638	 0.5262258971	 0.13817
H	 1.1555491919	 1.0422893635	-2.2833554917	 0.140122
H	 1.9827943284	-0.5140840724	-2.5212075547	 0.160503
H	 0.3038177682	-0.3353165141	-3.0177727086	 0.155037
H	-0.7940119798	-1.9762349754	 0.5762151403	 0.122919
84.8581	94.5517	109.7627	114.093	194.5565	288.3053	329.8125	420.5351	524.2595	559.5866	664.0375	854.9984	992.5712	1045.945	1058.4713	1089.7087	1135.5419	1136.9551	1156.8929	1238.5672	1394.3356	1404.8304	1446.4787	1471.5484	1477.737	1486.3176	1506.7019	1784.7843	1866.1581	3010.6104	3055.3578	3074.1406	3076.6729	3085.3943	3114.6417	3164.5273
CN=C(C)OC=O	CN=C(C)OC=O	
InChI=1S/C4H7NO2/c1-4(5-2)7-3-6/h3H,1-2H3	InChI=1S/C4H7NO2/c1-4(5-2)7-3-6/h3H,1-2H3
