16
gdb 2308	6.73733	1.40222	1.27416	4.2444	65.09	-0.2898	0.0384	0.3283	942.6876	0.136654	-288.648208	-288.640648	-288.639704	-288.680203	27.03	
C	 0.0778169741	 1.5681075618	-0.1770807182	-0.408372
C	 0.0403773608	 0.0647870321	-0.0024101284	-0.01019
C	 1.3050410873	-0.759627875	-0.0385365035	-0.282975
C	 0.5233278375	-0.6401491031	 1.2464411622	 0.009962
C	 1.0899877039	 0.1240323792	 2.4345063996	-0.363876
C	 1.982149807	-0.7041843515	 3.248645198	 0.264397
N	 2.6800460274	-1.3685173149	 3.8864898104	-0.306836
H	 0.9912197676	 2.0102984407	 0.2316732018	 0.116274
H	 0.0447614738	 1.82912461	-1.2401381586	 0.126017
H	-0.7762843184	 2.0526695353	 0.3092022206	 0.121039
H	-0.8296151632	-0.4005821014	-0.4587302744	 0.092968
H	 1.3089163082	-1.7106030916	-0.5587658278	 0.120611
H	 2.2456736707	-0.2197706841	-0.0988316107	 0.116605
H	-0.0449451591	-1.5168824862	 1.5421073844	 0.103954
H	 1.651196041	 1.0037752313	 2.1045809231	 0.148714
H	 0.2825565215	 0.4928429075	 3.0789800115	 0.151709
57.7772	122.9646	191.8281	228.9964	299.9324	389.5589	401.5655	469.7896	539.2027	761.7923	827.6525	866.2	873.6131	915.7413	945.9581	992.7241	1054.6234	1076.0984	1109.1957	1147.6484	1153.1284	1197.8093	1245.1023	1252.8285	1315.8343	1389.7365	1417.0837	1429.4358	1461.3962	1493.8268	1495.2672	1507.3814	2361.9414	3031.4491	3039.7158	3085.0447	3092.1604	3103.7386	3129.3425	3138.3426	3155.3334	3215.4791
CC1CC1CC#N	C[C@H]1C[C@H]1CC#N	
InChI=1S/C6H9N/c1-5-4-6(5)2-3-7/h5-6H,2,4H2,1H3	InChI=1S/C6H9N/c1-5-4-6(5)2-3-7/h5-6H,2,4H2,1H3/t5-,6+/m0/s1
