14
gdb 2667	12.01043	0.92905	0.91567	4.0775	59.52	-0.2425	-0.0217	0.2208	1218.5948	0.11026	-361.708021	-361.699687	-361.698743	-361.742241	26.479	
C	-0.1244356668	 1.449608556	 0.072837708	-0.251541
O	 0.0321255443	 0.0409926621	-0.0696368153	-0.188721
C	-1.0903863502	-0.6856874568	 0.051645759	 0.141024
N	-1.0632582935	-1.9364119788	-0.0947139892	-0.222714
C	-2.3095344299	-2.651990835	 0.0496448997	-0.237286
C	-2.5813470721	-3.5112035864	-1.1797762585	 0.156414
O	-3.6795080178	-3.8617543599	-1.5224856498	-0.23755
H	 0.8759736247	 1.876896851	 0.0005515691	 0.151401
H	-0.7514647486	 1.8646255246	-0.7250014	 0.132571
H	-0.5562827762	 1.7083153004	 1.0468921836	 0.130744
H	-1.9936281251	-0.1012054184	 0.2884455378	 0.08089
H	-2.2242086761	-3.3541260597	 0.8943797705	 0.137811
H	-3.1932563672	-2.0226192683	 0.2401484189	 0.111438
H	-1.6629402555	-3.8042565908	-1.7336301039	 0.095519
42.3393	53.6417	100.9082	153.2275	174.1469	260.7155	365.019	425.6798	472.3166	631.8354	744.4554	990.6748	1035.1463	1039.6062	1081.4169	1118.4869	1176.6241	1180.5642	1232.8951	1281.2986	1327.4556	1401.3105	1415.7365	1457.994	1486.9873	1495.353	1500.111	1775.468	1839.022	2904.1461	2972.9523	2992.6523	3013.9854	3020.1449	3084.0668	3149.9721
COC=NCC=O	COC=NCC=O	
InChI=1S/C4H7NO2/c1-7-4-5-2-3-6/h3-4H,2H2,1H3	InChI=1S/C4H7NO2/c1-7-4-5-2-3-6/h3-4H,2H2,1H3
