14
gdb 1492	6.53172	1.29933	1.10575	3.6593	59.35	-0.2959	-0.0845	0.2113	1020.6226	0.111499	-324.605875	-324.597918	-324.596974	-324.638709	26.677	
C	-0.0016460787	 1.5759347504	 0.0419703163	-0.391723
C	-0.0054106447	 0.046564404	-0.0106885528	-0.175531
C	 0.7121538088	-0.5748282785	 1.1875252604	-0.288151
C	 0.7271240979	-2.0841975804	 1.1678926959	 0.285954
O	 0.2363810441	-2.779459661	 0.3150063885	-0.261555
C	 1.4181003344	-2.7085297263	 2.3224074137	 0.225874
N	 1.9600683418	-3.1802776731	 3.2284505034	-0.294465
H	 1.0193313248	 1.9730560963	 0.0453302087	 0.120075
H	-0.5195170131	 1.9963674208	-0.8245359897	 0.124582
H	-0.5038507427	 1.9459309029	 0.9425256129	 0.120085
H	-1.032993075	-0.3299724639	-0.0443563397	 0.121515
H	 0.4721826739	-0.3030868164	-0.9318257643	 0.121509
H	 1.7570592867	-0.2379685742	 1.2553914379	 0.145912
H	 0.2576523018	-0.2642031306	 2.1398041289	 0.145917
66.4364	92.8609	118.6819	226.6109	243.4931	275.8334	341.8794	463.3749	571.7747	607.2451	747.208	824.1216	880.9189	909.6064	1048.6626	1062.6585	1110.2989	1139.9574	1246.3662	1320.5807	1321.213	1396.6629	1418.2851	1440.3261	1487.7288	1500.9095	1507.6509	1798.9103	2336.3015	3011.7177	3033.686	3037.3449	3053.2892	3081.4014	3105.9159	3112.6076
CCCC(=O)C#N	CCCC(=O)C#N	
InChI=1S/C5H7NO/c1-2-3-5(7)4-6/h2-3H2,1H3	InChI=1S/C5H7NO/c1-2-3-5(7)4-6/h2-3H2,1H3
