17
gdb 3615	4.30762	3.49079	2.75919	0.2126	66.01	-0.2495	0.0941	0.3435	591.4854	0.152095	-272.566631	-272.56137	-272.560426	-272.595239	22.175	
C	-0.0043237458	 1.5420812583	 0.0532403617	-0.232005
C	 1.5230397525	 1.5287265317	-0.0176043338	-0.056837
C	 2.0996255871	 0.5052788921	 0.9496349958	-0.023271
C	 1.2431882649	 0.0336659374	 2.1260813451	-0.232704
C	-0.0036986418	-0.5996718156	 1.4464630815	-0.199056
C	 0.0219602286	-0.022895778	 0.0243992634	-0.030521
C	 1.5280731805	 0.048507237	-0.3630427508	-0.076466
H	-0.4824210832	 2.0194491556	 0.9174381129	 0.083913
H	-0.4400604195	 1.953427089	-0.8611627328	 0.09704
H	 2.1460553698	 2.3191327073	-0.4211718811	 0.075661
H	 3.1784684712	 0.5379638544	 1.0582991692	 0.077041
H	 1.7833760375	-0.6942873938	 2.7390884492	 0.094629
H	 0.9692063824	 0.8631088597	 2.7872340633	 0.09826
H	 0.0937194704	-1.6909509439	 1.4103380252	 0.093164
H	-0.9356630928	-0.3690318816	 1.9733879903	 0.091429
H	-0.6689877011	-0.4971215181	-0.6728240638	 0.062146
H	 2.0515765493	-0.4992412215	-1.1352636853	 0.077579
217.3986	364.4543	407.8204	609.3118	695.1714	714.2201	777.0254	798.8432	827.6222	859.722	882.0473	907.1332	949.1626	977.9355	988.7958	998.0399	1032.6477	1048.2738	1061.6487	1092.3925	1113.4855	1143.1611	1168.4543	1222.1614	1234.3165	1241.0689	1278.8757	1285.7423	1306.6933	1325.115	1350.6647	1402.8401	1484.0057	1494.8234	1510.5564	3025.0461	3031.4411	3042.4651	3069.9072	3086.1953	3089.6681	3109.5819	3163.2465	3172.4582	3200.2033
C1C2C3CCC1C23	C1[C@H]2[C@H]3CC[C@@H]1[C@@H]23	
InChI=1S/C7H10/c1-2-5-6-3-4(1)7(5)6/h4-7H,1-3H2	InChI=1S/C7H10/c1-2-5-6-3-4(1)7(5)6/h4-7H,1-3H2/t4-,5+,6-,7+/m0/s1
