10
gdb 2493	2.85134	2.76229	1.47936	3.5654	57.61	-0.2919	0.0039	0.2959	762.5513	0.064106	-284.964138	-284.956993	-284.956049	-284.995268	24.99	
C	-0.0189194891	-1.2263743107	 0.0206815494	-0.412975
C	 0.0030010372	-0.0283703012	-0.0138255044	 0.342422
C	 0.0219271381	 1.4404958129	-0.0343907338	-0.486095
C	 1.3864062407	 1.9847787054	-0.0169118004	 0.342515
C	 2.4967293169	 2.4353348117	 0.0157818031	-0.413023
C	-0.7385422633	 1.9613691858	-1.1924372503	 0.3148
N	-1.345148414	 2.3769821575	-2.0817852691	-0.312425
H	-0.03546782	-2.2885753596	 0.0437367198	 0.217539
H	-0.5022106683	 1.8019688757	 0.8640127776	 0.189706
H	 3.4823231418	 2.8317457925	 0.0390295481	 0.217535
126.3162	132.2334	158.2966	321.7782	344.1898	356.3982	543.1278	571.5875	576.7021	657.7395	658.23	677.4803	678.8158	843.6131	1015.2717	1036.7552	1276.2353	1281.5715	2253.8701	2258.1153	2373.2876	2994.8582	3500.8634	3501.7425
C#CC(C#C)C#N	C#CC(C#C)C#N	
InChI=1S/C6H3N/c1-3-6(4-2)5-7/h1-2,6H	InChI=1S/C6H3N/c1-3-6(4-2)5-7/h1-2,6H
