15
gdb 2611	11.59947	0.95229	0.89454	0.4981	69.16	-0.2579	0.0391	0.297	1218.0276	0.122303	-271.318933	-271.31072	-271.309776	-271.351514	29.168	
C	-0.0474003058	-1.2300338733	-0.0046014185	-0.427609
C	-0.0443219062	-0.0281733619	 0.0025627766	 0.284887
C	-0.0075879209	 1.4286451366	 0.0107185721	-0.354783
C	 1.4274561601	 1.9905423369	-0.0010025194	-0.168417
C	 1.4367285109	 3.5316591976	 0.007943222	-0.354791
C	 2.7832432948	 4.0888970042	-0.0028413681	 0.284953
C	 3.9037868029	 4.5234352741	-0.0122505483	-0.427664
H	-0.0611277872	-2.2915935763	-0.010894893	 0.194837
H	-0.5583226536	 1.8131816189	-0.8582680652	 0.130872
H	-0.5399670913	 1.8028921655	 0.8954927403	 0.130868
H	 1.9749293569	 1.6157080745	 0.8689681623	 0.125133
H	 1.9565583014	 1.6260027331	-0.8865749075	 0.125133
H	 0.879036751	 3.9060645751	-0.8610325208	 0.130876
H	 0.8973877689	 3.8957771695	 0.8927269397	 0.130866
H	 4.8896249283	 4.9173720153	-0.0208140621	 0.194841
92.4754	96.6536	98.3638	198.4643	316.1979	344.1195	349.7565	449.0558	557.6453	617.4139	618.0198	637.3252	637.883	740.8094	843.6682	923.2716	994.2099	1032.3894	1041.3477	1083.823	1175.5043	1260.6903	1297.1864	1320.749	1349.6175	1385.7948	1472.4943	1475.4014	1502.2729	2240.022	2240.6508	3011.9521	3014.13	3041.1653	3042.285	3061.1201	3107.0796	3506.6981	3507.0158
C#CCCCC#C	C#CCCCC#C	
InChI=1S/C7H8/c1-3-5-7-6-4-2/h1-2H,5-7H2	InChI=1S/C7H8/c1-3-5-7-6-4-2/h1-2H,5-7H2
