18
gdb 4830	4.56009	1.31306	1.09297	1.3875	76.38	-0.177	0.0544	0.2315	1120.3562	0.155196	-344.025028	-344.016516	-344.015571	-344.05836	31.278	
C	 0.002896023	 1.5305040572	-0.277629212	-0.364901
C	-0.0459153882	 0.0446477782	 0.124039211	-0.29976
C	-1.4258758693	-0.529675732	 0.1761943804	 0.303285
C	-2.1898736215	-0.9606995945	 1.236563629	-0.223122
C	-3.443237943	-1.4147449311	 0.7284928714	-0.203441
C	-3.4163291584	-1.239409331	-0.6363996543	 0.259109
N	-4.3644517614	-1.4510301769	-1.6630187563	-0.611713
N	-2.1930308996	-0.7019126155	-0.9593713942	-0.30763
H	 1.0335357317	 1.899817473	-0.2911688383	 0.109536
H	-0.4196005773	 1.6903148154	-1.2756052315	 0.106947
H	-0.5730226608	 2.1403458462	 0.4247262309	 0.124513
H	 0.5820782002	-0.5340001524	-0.5685127065	 0.098324
H	 0.4046902476	-0.0777871245	 1.1143445163	 0.111974
H	-1.8735197666	-0.964123395	 2.2692865283	 0.083017
H	-4.2605429774	-1.8377016022	 1.2930907275	 0.077178
H	-5.3020057255	-1.4617936577	-1.2797108459	 0.244385
H	-4.2236930334	-2.3390962458	-2.1378135268	 0.240498
H	-1.9473345903	-0.4088132713	-1.8895689191	 0.251803
52.8212	112.3616	132.1805	197.673	252.0523	308.2721	382.4867	435.4922	481.9621	602.2703	642.7429	676.6452	712.1678	768.7227	780.8402	811.4197	835.1309	946.6147	1006.4342	1019.7499	1052.9476	1074.0002	1085.4246	1166.4572	1209.386	1256.4605	1294.9757	1304.7331	1356.606	1407.2255	1442.0935	1461.9082	1479.5624	1496.9038	1503.3968	1549.1286	1631.2682	1658.6857	3002.0165	3031.3471	3069.7777	3098.9679	3111.9836	3232.0856	3247.8649	3480.7352	3587.4492	3671.8415
CCC1=CC=C(N)N1	CCc1ccc(N)[nH]1	
InChI=1S/C6H10N2/c1-2-5-3-4-6(7)8-5/h3-4,8H,2,7H2,1H3	InChI=1S/C6H10N2/c1-2-5-3-4-6(7)8-5/h3-4,8H,2,7H2,1H3
