12
gdb 2984	4.63289	1.99893	1.48613	3.9166	50.79	-0.2884	-0.0014	0.287	767.9309	0.088897	-360.485033	-360.477952	-360.477008	-360.516589	24.206	
O	 0.1673825503	 1.5479533999	-0.1151830023	-0.402326
C	 0.0618435227	 0.1486821791	 0.0633503165	-0.041551
C	 0.5336553321	-0.5819998371	-1.1308986412	 0.254824
N	 0.9458384397	-1.1217287031	-2.0655273755	-0.3086
C	 0.7973781628	-0.3293161947	 1.3087204271	 0.069407
C	 0.1146277805	-0.3398093601	 2.6044706667	-0.175814
O	 0.337288305	-1.5495307785	 1.8718489932	-0.218544
H	 1.0701614266	 1.7581693801	-0.3807027901	 0.301026
H	-1.0036053882	-0.0654841518	 0.196058013	 0.15082
H	 1.8818819624	-0.2135290559	 1.2766809007	 0.111234
H	 0.6963752372	-0.2325272991	 3.5175753219	 0.130407
H	-0.9222959511	-0.0136688388	 2.66665757	 0.129117
65.4524	146.3417	213.2316	252.4112	284.4722	368.8076	456.6631	542.0785	614.1703	838.556	875.4493	913.4887	991.9167	1057.7214	1099.9911	1129.6643	1161.2781	1170.2141	1250.5583	1287.823	1302.5543	1406.3304	1442.5229	1529.3687	2358.1017	3073.1056	3093.7088	3105.5379	3184.8395	3804.9662
OC(C#N)C1CO1	O[C@@H](C#N)[C@H]1CO1	
InChI=1S/C4H5NO2/c5-1-3(6)4-2-7-4/h3-4,6H,2H2	InChI=1S/C4H5NO2/c5-1-3(6)4-2-7-4/h3-4,6H,2H2/t3-,4+/m0/s1
