15
gdb 3738	7.14287	2.00998	1.60029	2.2288	64.09	-0.2255	0.0279	0.2534	780.9089	0.126236	-304.726439	-304.719229	-304.718285	-304.758379	24.805	
C	-0.0471201145	 1.4279833505	 0.0639084247	-0.319027
N	 0.0236275011	-0.0144446225	-0.0097253307	 0.063747
C	 0.0863413401	-0.7917878402	-1.1213588917	-0.125139
C	 0.0466825615	-2.1098794117	-0.7091621035	 0.189992
C	 0.1054118702	-3.3437479264	-1.5573181697	-0.505144
C	-0.0479491919	-2.010063108	 0.6981217613	-0.072619
N	-0.0650959814	-0.7468244006	 1.1165828566	-0.269359
H	 0.4514272844	 1.8615973702	-0.8057365721	 0.135704
H	-1.085350276	 1.7770347693	 0.091656206	 0.140352
H	 0.4589548451	 1.7556093745	 0.9730384487	 0.15588
H	 0.1578728153	-0.3583979879	-2.1073500816	 0.122932
H	 0.983551865	-3.95692849	-1.3246618803	 0.129023
H	-0.7761954696	-3.9782263201	-1.4121792662	 0.128959
H	 0.155387933	-3.0896719397	-2.6199592372	 0.120463
H	-0.0952923023	-2.8120155173	 1.421645456	 0.104235
61.3509	65.2249	165.7279	263.8536	288.0745	409.1924	605.2374	630.5254	669.6873	749.5252	786.3579	873.1194	1000.7325	1005.5367	1033.0388	1065.1855	1075.1554	1148.2979	1188.0645	1229.8886	1346.3215	1389.5182	1409.9495	1424.3007	1446.0805	1470.2686	1485.1478	1485.987	1505.0193	1521.3755	1615.6726	3028.5971	3038.3745	3077.9755	3106.5334	3111.3324	3150.898	3234.2402	3249.8099
CN1C=C(C)C=N1	Cn1cc(C)cn1	
InChI=1S/C5H8N2/c1-5-3-6-7(2)4-5/h3-4H,1-2H3	InChI=1S/C5H8N2/c1-5-3-6-7(2)4-5/h3-4H,1-2H3
