16
gdb 3491	3.93977	3.69898	3.61535	1.6939	62.	-0.2346	0.0934	0.328	539.2287	0.141472	-288.639421	-288.634665	-288.633721	-288.667528	20.416	
C	-0.0308766921	 1.5800917236	 0.0115039337	-0.22771
C	 1.4782956506	 1.803682913	 0.0113497436	-0.026147
C	 2.0948396106	 0.6697153261	 0.7566262037	-0.026148
C	 0.9613489706	-0.2448404712	 1.2109171496	-0.22771
C	 0.0307138087	 0.0361800116	 0.0099160518	-0.057692
C	 1.0179176027	-0.1896782098	-1.1503988034	-0.148923
N	 2.1345708275	 0.6940166783	-0.7296179645	-0.123605
H	-0.5149546637	 1.989880581	 0.9037472714	 0.098652
H	-0.5255066949	 1.9897209055	-0.8748966611	 0.099615
H	 1.9298256066	 2.7848084507	-0.0705086216	 0.087227
H	 3.0432735923	 0.7369199386	 1.2754169286	 0.087227
H	 1.2605337745	-1.2952189267	 1.284088707	 0.099615
H	 0.5317591157	 0.0647308941	 2.16902683	 0.098652
H	-0.9166356635	-0.4993730677	-0.0212332717	 0.066532
H	 1.3700351518	-1.2225697733	-1.2329007624	 0.100208
H	 0.6335124725	 0.1320587663	-2.1232173648	 0.100207
418.7125	436.9735	446.2185	667.1067	680.9891	792.5759	809.4437	849.5306	905.0098	914.7347	919.0154	935.1186	938.4055	957.1299	960.6403	1031.5347	1039.945	1081.9767	1086.3049	1146.1664	1152.5001	1189.2658	1212.9598	1242.006	1253.109	1276.7757	1297.9683	1303.4765	1333.1465	1386.5054	1486.1316	1490.2212	1515.7779	3046.3398	3046.8588	3053.6792	3090.3874	3095.2083	3098.796	3134.78	3182.6573	3193.1634
C1C2C3CC1CN23	C1[C@H]2[C@H]3C[C@@H]1CN23	
InChI=1S/C6H9N/c1-4-2-6-5(1)7(6)3-4/h4-6H,1-3H2	InChI=1S/C6H9N/c1-4-2-6-5(1)7(6)3-4/h4-6H,1-3H2/t4-,5+,6-,7?
