13
gdb 1459	6.35201	1.31368	1.20178	3.4324	52.38	-0.2521	-0.0406	0.2114	944.5711	0.098102	-381.600777	-381.59277	-381.591825	-381.634359	26.249	
O	 0.0932495007	 1.3324200632	 0.3139033583	-0.39121
C	-0.0688677456	-0.0473156551	 0.1490876902	-0.174816
C	-1.4476808488	-0.3442783324	-0.4190897385	 0.370911
O	-2.2633428579	 0.5066026252	-0.665909845	-0.283305
C	-1.7532939116	-1.8284596006	-0.6331129305	-0.386608
C	-3.0029564364	-2.2305090679	 0.1397099421	 0.164386
O	-3.0794439742	-3.2163774695	 0.822395588	-0.229927
H	 0.9690402445	 1.4918018953	 0.677630951	 0.297447
H	 0.6712473462	-0.4926185784	-0.5405593677	 0.115069
H	 0.0176475135	-0.6123797317	 1.0953700733	 0.119238
H	-1.9800504956	-1.9533759684	-1.7001524323	 0.159938
H	-0.927965997	-2.4916264314	-0.3640189298	 0.12682
H	-3.8490207278	-1.5231032883	 0.019754411	 0.112056
29.4599	100.1567	115.4465	202.2444	231.1819	266.266	384.1491	461.135	517.5412	648.7543	768.9136	861.6786	920.2816	998.325	1070.8583	1091.3192	1146.3756	1197.5542	1231.7381	1256.3482	1289.4953	1408.4751	1439.9485	1445.484	1488.9958	1816.4175	1846.223	2931.3995	2941.8351	2962.1743	3036.6201	3118.0275	3837.1488
OCC(=O)CC=O	OCC(=O)CC=O	
InChI=1S/C4H6O3/c5-2-1-4(7)3-6/h2,6H,1,3H2	InChI=1S/C4H6O3/c5-2-1-4(7)3-6/h2,6H,1,3H2
