15
gdb 1308	3.39434	2.71916	2.16812	2.0822	57.22	-0.2472	-0.0286	0.2186	682.4644	0.122791	-345.663386	-345.655772	-345.654828	-345.695098	27.353	
C	-0.0608172082	 1.6087860369	 0.058289959	-0.425225
C	-0.0841221319	 0.0815253741	-0.0059811811	 0.327628
O	-1.3982824596	-0.3850296474	 0.1778698828	-0.480781
C	 0.7353522728	-0.4952847627	-1.2174322364	-0.278065
C	 1.9575372688	-0.7514672398	-0.2783752381	-0.338768
C	 0.9686835459	-0.6067765064	 0.8821837396	 0.333474
O	 0.8681144459	-1.0969796201	 1.972771313	-0.312791
H	 0.9418086677	 2.0116135896	-0.1158261945	 0.114658
H	-0.7320188875	 2.0084903751	-0.7080345816	 0.1341
H	-0.4113973137	 1.9497305948	 1.0362753037	 0.131632
H	-1.3945231235	-0.9419892221	 0.9664803024	 0.293981
H	 0.2878682664	-1.4248283035	-1.5728063472	 0.122529
H	 0.8938078402	 0.1850304144	-2.0551756064	 0.109958
H	 2.4789399957	-1.7081684559	-0.3426269824	 0.133383
H	 2.6933655811	 0.0575340231	-0.3052688727	 0.134286
59.1918	155.9078	196.0855	238.8885	285.7523	330.4324	403.2379	481.427	558.8906	682.5557	736.7313	760.6702	859.4168	899.0592	940.4062	985.6041	1019.2689	1079.6606	1116.6752	1172.3923	1186.2551	1209.2313	1231.6624	1289.7497	1368.4324	1399.5514	1446.8827	1480.1398	1486.4843	1492.6112	1873.2229	3037.9757	3068.3164	3082.9052	3112.3052	3120.584	3127.3368	3147.4611	3775.7152
CC1(O)CCC1=O	C[C@@]1(O)CCC1=O	
InChI=1S/C5H8O2/c1-5(7)3-2-4(5)6/h7H,2-3H2,1H3	InChI=1S/C5H8O2/c1-5(7)3-2-4(5)6/h7H,2-3H2,1H3/t5-/m1/s1
