14
gdb 435	4.53978	4.15272	2.54101	2.3269	49.4	-0.2442	0.0626	0.3069	539.14	0.118783	-307.544728	-307.538101	-307.537157	-307.575262	23.068	
C	-0.2161697192	 1.5164974296	 0.0308512808	-0.388016
C	 0.0802152414	 0.0302244831	 0.0287037231	 0.140207
O	 1.2159325812	-0.3145719025	-0.8071543885	-0.291576
C	 1.9581484584	-0.8335178087	 0.3125295438	-0.095406
C	 0.7794490419	-0.5666240179	 1.2755284095	 0.053792
O	 0.9801617893	 0.3740811699	 2.3032204036	-0.421476
H	 0.6428826177	 2.087389185	 0.3887001761	 0.131298
H	-0.4596219043	 1.840710875	-0.9855481859	 0.120725
H	-1.0704890727	 1.7362419143	 0.6790070194	 0.118563
H	-0.8064811778	-0.5358628205	-0.2865115249	 0.074218
H	 2.2467377025	-1.8822997453	 0.1676505114	 0.095002
H	 2.8507093182	-0.2346989997	 0.5364675434	 0.099479
H	 0.2995305806	-1.4765529713	 1.6565230194	 0.074425
H	 1.4192347728	-0.065417651	 3.0376245488	 0.288765
52.4327	199.0868	214.7868	247.7368	382.8284	409.3395	536.3681	749.2462	807.474	875.8575	906.4256	1001.6126	1029.2686	1062.1825	1093.9653	1129.3601	1156.9946	1190.5375	1220.4321	1289.3682	1311.1642	1348.8809	1379.7045	1404.8425	1438.0268	1483.3929	1490.778	1513.0081	3004.2862	3007.2805	3025.8505	3044.8616	3056.1612	3112.6618	3137.4451	3825.9599
CC1OCC1O	C[C@H]1OC[C@H]1O	
InChI=1S/C4H8O2/c1-3-4(5)2-6-3/h3-5H,2H2,1H3	InChI=1S/C4H8O2/c1-3-4(5)2-6-3/h3-5H,2H2,1H3/t3-,4-/m1/s1
