17
gdb 2578	2.94296	2.71044	1.78572	1.8786	59.78	-0.2577	0.0737	0.3314	774.9516	0.147284	-346.832352	-346.824437	-346.823493	-346.864605	28.609	
C	-0.5679651422	 0.7358847655	-0.5244443554	-0.383143
C	-0.3568064889	-0.6309972969	 0.1410614471	-0.252442
C	 0.737271713	-0.6512192526	 1.1937672881	 0.388318
C	 0.5415090368	 0.170799052	 2.4586625831	-0.124585
O	 0.7127008451	 1.5574532289	 2.2197885635	-0.411978
C	 1.6902859594	-1.7713509303	 1.2365598157	-0.226183
O	 2.0805550791	-0.5138592426	 0.6779161308	-0.284365
H	 0.3521749353	 1.0629198916	-1.0184768818	 0.124355
H	-1.3537323945	 0.6720917773	-1.2832748888	 0.107338
H	-0.8447503818	 1.5005997867	 0.2036407982	 0.140662
H	-1.2898346013	-0.9688221255	 0.6107480139	 0.100034
H	-0.1078960399	-1.3723899874	-0.6263071435	 0.100832
H	-0.4755702902	 0.0445128472	 2.8446269834	 0.110208
H	 1.2399524953	-0.1824915645	 3.2320910633	 0.08934
H	 1.5704931365	 1.6491371357	 1.7878064952	 0.294173
H	 2.1788253547	-2.0387538687	 2.1728186144	 0.112827
H	 1.5906424835	-2.5857344365	 0.5202864529	 0.114609
59.0477	104.4525	206.2698	240.9276	276.0634	353.1303	376.0936	449.2681	464.5354	558.1929	720.2843	787.7997	849.8602	898.6765	956.0692	973.1406	1007.7404	1069.6257	1092.716	1100.6758	1133.8268	1172.0629	1207.1212	1270.3707	1316.1468	1350.1723	1369.0743	1411.8394	1423.0618	1440.4882	1475.7487	1496.8046	1500.3062	1514.1977	1530.9802	2989.3139	3025.0464	3045.2338	3065.9451	3076.7358	3082.1723	3109.6394	3139.4084	3167.7227	3792.1333
CCC1(CO)CO1	CC[C@@]1(CO)CO1	
InChI=1S/C5H10O2/c1-2-5(3-6)4-7-5/h6H,2-4H2,1H3	InChI=1S/C5H10O2/c1-2-5(3-6)4-7-5/h6H,2-4H2,1H3/t5-/m1/s1
