13
gdb 1499	6.40989	1.46305	1.32955	2.7295	56.09	-0.245	-0.0898	0.1552	885.6223	0.100534	-340.639366	-340.631592	-340.630648	-340.671819	25.903	
C	-0.0338325349	 0.9958097983	-0.5711200472	-0.326462
N	-0.2340577655	 0.2920284794	 0.6961523239	-0.26481
C	-1.3771454081	-0.5819782825	 0.71650661	-0.269443
C	-1.213470456	-1.8871843318	-0.0631379433	 0.284206
O	-0.1768815302	-2.2647882714	-0.5462914266	-0.265029
C	-2.439325067	-2.712155831	-0.1564784425	 0.22198
N	-3.422368943	-3.3192854651	-0.2087202873	-0.288649
H	 0.8601083133	 1.6197393665	-0.4910871226	 0.130579
H	 0.0829208942	 0.3380053304	-1.4452330773	 0.11938
H	-0.885951766	 1.660458058	-0.7513794406	 0.126808
H	 0.599528607	-0.2384992516	 0.9265356251	 0.234258
H	-1.6287206948	-0.8744959285	 1.7483578486	 0.149978
H	-2.2655436989	-0.0597917206	 0.3377100398	 0.147203
62.5739	116.9458	139.6713	195.0663	266.947	284.5576	370.7596	507.6829	560.2058	589.0151	733.4288	822.4586	943.695	993.6836	1057.9712	1143.062	1159.3043	1209.5281	1305.6425	1357.1034	1430.972	1464.2547	1491.2745	1502.3345	1526.7567	1799.7138	2332.1889	2992.677	2998.2051	3054.6367	3069.4377	3113.9915	3533.6057
CNCC(=O)C#N	CNCC(=O)C#N	
InChI=1S/C4H6N2O/c1-6-3-4(7)2-5/h6H,3H2,1H3	InChI=1S/C4H6N2O/c1-6-3-4(7)2-5/h6H,3H2,1H3
