12
gdb 736	8.97305	3.51644	2.56659	1.9119	51.26	-0.2393	0.0296	0.2689	500.7111	0.098676	-265.440996	-265.435575	-265.43463	-265.469779	19.456	
C	-0.0216926252	 1.4788959085	-0.0300881576	-0.489818
C	 0.0019101198	-0.0154254206	 0.0482467584	 0.348899
N	-0.0724150714	-0.7527975537	-1.0591188622	-0.283276
N	-0.0243943534	-2.0284858667	-0.624474145	-0.179542
C	 0.0778847606	-2.126977927	 0.7221710273	-0.016388
C	 0.098351	-0.8359107984	 1.2005202485	-0.271045
H	 0.8908826308	 1.9166305221	 0.3893143385	 0.126796
H	-0.1075112486	 1.7950381153	-1.0717861958	 0.138516
H	-0.8670406647	 1.8960851288	 0.5281064417	 0.126722
H	-0.0662426878	-2.7738574005	-1.2975738102	 0.272552
H	 0.1266986481	-3.0827613725	 1.2199525627	 0.129015
H	 0.1719950318	-0.5254876352	 2.2303848037	 0.097571
97.046	274.813	342.5018	492.1382	654.4783	668.6413	697.2315	767.7318	839.1681	946.3498	978.6568	1007.7713	1066.0171	1067.4854	1113.2308	1209.3345	1294.4978	1397.7623	1410.0352	1476.9947	1483.6344	1484.9136	1500.8126	1582.0007	3034.9703	3085.6873	3132.1824	3253.0782	3272.3304	3682.0861
CC1=NNC=C1	Cc1n[nH]cc1	
InChI=1S/C4H6N2/c1-4-2-3-5-6-4/h2-3H,1H3,(H,5,6)	InChI=1S/C4H6N2/c1-4-2-3-5-6-4/h2-3H,1H3,(H,5,6)
