16
gdb 390	7.1409	1.93367	1.65547	2.6348	53.08	-0.2607	0.0735	0.3342	743.5937	0.141197	-308.75909	-308.751086	-308.750141	-308.790858	27.566	
C	-0.0129531315	 1.5676590275	 0.0187120729	-0.385732
C	-0.0216227686	 0.0363239498	-0.0365264347	 0.047315
C	-1.4427475644	-0.524776985	 0.0059293384	-0.079579
O	-2.0389238046	-0.1334699433	 1.2340193099	-0.421893
C	 0.716214021	-0.4910047441	-1.2668791717	-0.079582
O	 2.0700270925	-0.0693686903	-1.1881920904	-0.42189
H	 1.0117874795	 1.9446327066	 0.0140584446	 0.128
H	-0.5327729691	 1.989583028	-0.8511732955	 0.098522
H	-0.5210280472	 1.9207422561	 0.9183843099	 0.127992
H	 0.5048138722	-0.3503815016	 0.846079308	 0.092754
H	-2.0183801535	-0.1405986432	-0.8534525811	 0.080632
H	-1.4129805125	-1.6232075405	-0.0836034218	 0.08038
H	-2.9530605009	-0.4305952766	 1.2325039049	 0.286034
H	 0.6488199133	-1.5909368362	-1.2993555682	 0.080382
H	 0.2341721369	-0.1051693904	-2.1813428704	 0.080633
H	 2.5180809368	-0.3455478571	-1.9924960349	 0.286032
99.578	106.432	215.7814	217.2129	246.1105	248.0065	297.8434	397.4161	431.9982	516.964	838.9004	923.2148	935.3748	952.8901	1052.1619	1079.9685	1104.1733	1170.4595	1177.4155	1210.6228	1262.2085	1279.2248	1290.3575	1326.2556	1385.2081	1400.6161	1456.4156	1469.3418	1497.5488	1499.7518	1516.4074	1525.64	2947.1676	2956.2579	2975.3061	2983.7773	3025.3755	3037.1378	3108.7872	3141.7352	3835.5593	3835.6481
CC(CO)CO	CC(CO)CO	
InChI=1S/C4H10O2/c1-4(2-5)3-6/h4-6H,2-3H2,1H3	InChI=1S/C4H10O2/c1-4(2-5)3-6/h4-6H,2-3H2,1H3
