15
gdb 1803	3.87991	2.6139	1.85218	2.9512	57.27	-0.2364	0.0292	0.2655	710.161	0.125383	-341.851447	-341.844091	-341.843147	-341.882603	27.263	
C	-0.1935620167	 1.5030231732	-0.5428166777	-0.467661
C	-0.0523199909	 0.0988404669	-0.0019924965	 0.217069
C	 0.883079533	-0.8557994683	-0.6686185341	-0.25341
N	 1.1971824609	-0.3230711871	 0.6648588392	-0.363212
C	-1.3238882413	-0.4649701966	 0.6095282699	 0.368645
N	-1.1132549863	-1.4094218231	 1.5648237628	-0.533715
O	-2.4243784744	-0.1066670697	 0.2308790097	-0.373854
H	 0.706358541	 1.8047647976	-1.0879068597	 0.104374
H	-1.0525030899	 1.5563245855	-1.2146574972	 0.156286
H	-0.365106033	 2.2192726043	 0.2677710297	 0.128227
H	 0.6498611013	-1.9160386069	-0.6930907824	 0.130061
H	 1.4440282653	-0.4889707779	-1.5242483853	 0.120114
H	 1.8920551165	 0.4163073378	 0.6001357103	 0.23641
H	-0.1860516713	-1.5067963742	 1.9487684575	 0.2729
H	-1.9119182842	-1.7697028317	 2.0593676739	 0.257767
75.1697	189.6272	247.1144	287.8875	339.2229	353.421	398.6352	504.0399	511.7239	647.4867	691.7166	759.6915	847.0273	867.2127	943.8165	978.6191	1007.0094	1045.4178	1103.0964	1125.3647	1147.5691	1262.404	1267.2928	1348.3248	1408.0905	1413.7118	1478.8369	1501.9465	1506.9444	1587.9402	1794.0179	3038.3076	3101.9219	3111.7252	3136.0013	3201.3035	3503.7594	3579.651	3723.9052
CC1(CN1)C(N)=O	C[C@]1(CN1)C(=O)N	
InChI=1S/C4H8N2O/c1-4(2-6-4)3(5)7/h6H,2H2,1H3,(H2,5,7)	InChI=1S/C4H8N2O/c1-4(2-6-4)3(5)7/h6H,2H2,1H3,(H2,5,7)/t4-/m0/s1
