19
gdb 1688	4.11772	1.70212	1.28946	2.4166	63.48	-0.2553	0.0631	0.3184	957.8159	0.169985	-348.056093	-348.047277	-348.046333	-348.088867	32.331	
C	-0.1052107916	 1.5341864232	-0.0068969563	-0.386484
C	-0.0106599888	 0.0023267684	 0.0331468168	 0.007561
C	 0.8557107283	-0.4599124236	 1.2144392441	-0.39852
C	-1.4109697691	-0.6311227263	 0.0594995607	 0.113325
O	-2.206646216	-0.2050759996	-1.058595835	-0.442712
C	-1.4225784562	-2.164488887	 0.0890240666	-0.069628
O	-2.7408033263	-2.6559553767	-0.0121184958	-0.425769
H	 0.8842568176	 1.9826084774	-0.1406344253	 0.109451
H	-0.7529663641	 1.8702765971	-0.8195965469	 0.122785
H	-0.5217632448	 1.9195934413	 0.9312464481	 0.115187
H	 0.4766777661	-0.3366775915	-0.8959386604	 0.06244
H	 0.3696520293	-0.2283768864	 2.1695132219	 0.119732
H	 1.0565085776	-1.5344460178	 1.1907495428	 0.121635
H	 1.820770179	 0.0561695083	 1.2032750134	 0.116137
H	-1.9632536308	-0.2648235206	 0.9343500861	 0.094613
H	-1.6990989311	-0.3863016408	-1.8593546698	 0.280558
H	-0.7849976681	-2.5431688927	-0.7332718709	 0.068165
H	-1.0043373068	-2.5427077632	 1.0265187589	 0.108202
H	-3.1809697441	-2.0647209996	-0.6376243289	 0.283322
81.8956	127.3525	185.4698	221.297	237.9917	303.3032	333.5707	347.3561	375.054	432.5393	487.0463	531.2485	560.2972	830.2154	883.818	929.9208	948.6973	969.6065	1048.6371	1067.1575	1101.5552	1131.3044	1154.9427	1192.6779	1215.9237	1270.0896	1298.9504	1349.1684	1377.4037	1380.0354	1399.8383	1411.9062	1427.5332	1450.4226	1489.7592	1490.6594	1504.2414	1510.6343	1513.6527	2918.1195	2969.3245	3030.7312	3033.672	3041.5122	3082.0441	3094.2542	3099.8609	3112.7462	3126.2119	3754.1499	3778.8996
CC(C)C(O)CO	CC(C)[C@@H](O)CO	
InChI=1S/C5H12O2/c1-4(2)5(7)3-6/h4-7H,3H2,1-2H3	InChI=1S/C5H12O2/c1-4(2)5(7)3-6/h4-7H,3H2,1-2H3/t5-/m0/s1
