15
gdb 1954	6.78626	1.55044	1.52269	1.4885	62.85	-0.2555	0.0467	0.3022	831.0734	0.124204	-308.469081	-308.461956	-308.461012	-308.500053	26.835	
O	 0.6276710933	 0.5656912649	-0.7193964049	-0.428663
C	-0.0936903787	-0.2960243006	 0.1184149424	 0.183681
C	 0.0638029072	-0.2020071949	 1.6583438876	-0.266894
C	-1.4612741691	-0.5457574658	 1.7890860628	-0.184784
C	-1.6251799658	-0.1204393262	 0.2880058818	-0.266894
C	-1.7359012824	-1.9473347769	 2.0439272964	 0.348266
C	-1.9559696402	-3.1124684864	 2.2463533948	-0.488876
H	 0.4483880693	 1.4713490409	-0.4446126406	 0.276348
H	 0.1380504957	-1.3070177023	-0.2273682059	 0.107159
H	 0.7780903226	-0.862879262	 2.1510555601	 0.115864
H	 0.2490657015	 0.8309735156	 1.9723838315	 0.094083
H	-2.0104958069	 0.0733645144	 2.5028558614	 0.104068
H	-1.9098590659	 0.9352370478	 0.2209172577	 0.094074
H	-2.2910668536	-0.7146150649	-0.3391085462	 0.115859
H	-2.1559361671	-4.1386497135	 2.4314272711	 0.19671
82.7139	171.929	231.1584	307.3278	389.981	416.5604	486.0748	530.0702	617.4701	626.3094	665.9098	799.135	818.9098	902.3872	920.5194	980.1296	996.405	1080.9601	1085.7556	1147.1446	1165.4488	1172.2446	1244.3443	1261.6726	1287.3905	1327.4343	1352.9661	1434.7577	1468.6169	1494.9606	2232.5414	3048.096	3050.4641	3071.8449	3082.1929	3128.2499	3130.9994	3504.2329	3804.0256
OC1CC(C1)C#C	O[C@H]1C[C@@H](C1)C#C	
InChI=1S/C6H8O/c1-2-5-3-6(7)4-5/h1,5-7H,3-4H2	InChI=1S/C6H8O/c1-2-5-3-6(7)4-5/h1,5-7H,3-4H2/t5-,6-
