13
gdb 3791	7.79974	2.01883	1.63349	1.5447	55.72	-0.2067	0.0068	0.2135	726.3864	0.104677	-336.811744	-336.805321	-336.804376	-336.842191	22.741	
C	 0.0660722088	 1.3978750108	-0.0880286913	-0.328103
N	-0.178181698	-0.0132191615	 0.1518009284	-0.370668
C	 0.56536375	-0.6602596677	 1.1179709827	 0.372101
N	 0.7201082467	-1.9879998574	 1.1164530989	-0.312944
N	 1.4387908875	-2.2041832883	 2.2228514207	-0.074742
N	 1.7701627927	-1.1449215119	 2.9329975632	-0.192776
C	 1.2269415652	-0.1334831524	 2.2511646128	-0.125463
H	 1.1094483336	 1.6286581772	-0.3542723214	 0.116104
H	-0.5829239073	 1.7363152282	-0.8986388634	 0.129884
H	-0.1926376661	 1.9795197302	 0.8030470421	 0.135866
H	-0.2946190674	-0.5711443662	-0.6813815416	 0.24604
H	 1.7165133567	-3.1326103796	 2.4926427053	 0.289554
H	 1.3296524976	 0.8836637588	 2.5900487536	 0.115147
90.6256	167.1021	217.5955	343.5057	439.2992	452.5825	575.8998	702.5088	722.4631	740.494	831.2769	990.5285	1009.4815	1088.4957	1154.0789	1163.343	1183.1681	1207.0366	1274.7869	1350.1731	1405.7172	1459.8272	1482.7265	1490.7279	1520.3673	1526.4694	1616.9797	2981.894	3068.5272	3122.6837	3279.1548	3605.2888	3682.9771
CNC1=NNN=C1	CNc1n[nH]nc1	
InChI=1S/C3H6N4/c1-4-3-2-5-7-6-3/h2H,1H3,(H2,4,5,6,7)	InChI=1S/C3H6N4/c1-4-3-2-5-7-6-3/h2H,1H3,(H2,4,5,6,7)
