12
gdb 47	10.66107	10.66107	6.30452	0.	41.83	-0.2982	0.0956	0.3938	268.4432	0.110511	-157.115484	-157.111322	-157.110378	-157.141657	14.696	
C	-0.0254295715	 1.5403257769	-0.0421594388	-0.191987
C	 1.5256439949	 1.5041998877	 0.0412127589	-0.191987
C	 1.4214672735	 0.0614679043	 0.6084488507	-0.191987
C	-0.026388329	-0.0107095612	 0.0493508773	-0.191987
H	-0.4659137201	 1.9963989367	 0.8496289378	 0.099237
H	-0.4790023915	 2.0002820704	-0.923653892	 0.09275
H	 1.9824827812	 1.5137533382	-0.953031827	 0.099237
H	 2.021913653	 2.2598657897	 0.6552212858	 0.09275
H	 2.1429167857	-0.6795635768	 0.2553147962	 0.09275
H	 1.4310585302	 0.0575147869	 1.7026187908	 0.099237
H	-0.7905344019	-0.4853029618	 0.6699657311	 0.09275
H	-0.0523324543	-0.472384461	-0.9423639408	 0.099237
186.0735	633.7646	749.1501	749.1501	886.6715	917.744	917.7445	945.2352	959.8604	1018.3063	1170.6256	1176.5709	1251.0289	1251.0292	1257.6118	1261.1644	1292.2759	1292.276	1480.9545	1480.9546	1488.8936	1518.4267	3050.6936	3051.23	3051.2303	3057.8003	3088.4254	3102.0627	3102.063	3119.704
C1CCC1	C1CCC1	
InChI=1S/C4H8/c1-2-4-3-1/h1-4H2	InChI=1S/C4H8/c1-2-4-3-1/h1-4H2
