17
gdb 3158	4.03094	2.5403	1.89169	1.7056	64.14	-0.2394	0.0785	0.3179	734.8483	0.147975	-309.686797	-309.679749	-309.678805	-309.7177	26.423	
C	-0.2920320941	 1.4633511036	 0.0646396713	-0.399688
C	 0.1172601752	 0.005868875	-0.0120274515	 0.096606
O	 1.3394421158	-0.1857096863	-0.7734031706	-0.299189
C	 1.9877508804	-0.8696650831	 0.320247969	-0.135388
C	 0.77027053	-0.6497072761	 1.2090496463	 0.299315
C	 0.7279415095	-0.2164952246	 2.6418290888	-0.321966
C	 0.1691066131	-1.5616141309	 2.2299784944	-0.326655
H	 0.4974447339	 2.0664492813	 0.5220878252	 0.12065
H	-0.4876271765	 1.8508495437	-0.9401768652	 0.126797
H	-1.2084445046	 1.5776831576	 0.6547445219	 0.111786
H	-0.6973030254	-0.5948363478	-0.4441138989	 0.071491
H	 2.2127682919	-1.9167342052	 0.0745263187	 0.097485
H	 2.9146792738	-0.3676289299	 0.62758681	 0.099593
H	 1.6611097582	-0.1963296856	 3.1964886811	 0.114545
H	 0.0277834948	 0.5636764072	 2.9231299604	 0.116111
H	-0.9093581014	-1.687962292	 2.2304967575	 0.114345
H	 0.7214267953	-2.454275837	 2.5069503716	 0.114162
85.3738	201.2995	218.523	259.2518	319.0808	378.9667	503.4546	552.9334	765.2678	782.5274	865.2983	879.7384	897.3027	917.0571	977.7885	1019.9315	1045.4104	1059.3368	1077.4399	1087.8393	1104.4081	1144.626	1157.0572	1187.627	1250.5676	1287.5216	1328.6188	1379.3991	1403.0442	1415.3478	1463.3826	1484.5627	1489.7218	1510.0478	1526.6267	2983.97	2997.6941	3032.9278	3036.6666	3102.3762	3118.1216	3120.2691	3124.6521	3197.7156	3212.7479
CC1OCC11CC1	C[C@H]1OCC21CC2	
InChI=1S/C6H10O/c1-5-6(2-3-6)4-7-5/h5H,2-4H2,1H3	InChI=1S/C6H10O/c1-5-6(2-3-6)4-7-5/h5H,2-4H2,1H3/t5-/m1/s1
