15
gdb 3540	6.06457	2.99345	2.67345	1.486	60.01	-0.2356	0.1082	0.3438	565.297	0.127975	-308.470796	-308.465936	-308.464992	-308.499088	20.186	
C	-0.0643034277	 1.5650593658	 0.0050362521	-0.24929
C	 1.454338155	 1.2850943801	-0.0056677513	-0.082354
C	 1.233522023	 0.1135864245	 1.0129352082	-0.047595
C	 2.2123281864	-0.9884084581	 0.6307362288	-0.106127
O	 2.1448465488	-0.9217919601	-0.8062194637	-0.281993
C	 1.2149055258	 0.1215392531	-1.0129361723	 0.157549
C	 0.0378782465	 0.0241765937	 0.0023912966	-0.082355
H	-0.4662273308	 2.0223670292	 0.9126806578	 0.095885
H	-0.4879047183	 2.0352072041	-0.8876846787	 0.092333
H	 2.2772232726	 2.0014525263	-0.0073239711	 0.071707
H	 1.0485727819	 0.3280817612	 2.0661732258	 0.071962
H	 3.2390272873	-0.798332457	 0.967437858	 0.101873
H	 1.9068023461	-1.9842638489	 0.9750217839	 0.101873
H	 1.0528156238	 0.2968356916	-2.0760771882	 0.084825
H	-0.7689311805	-0.7102023554	 0.0100182642	 0.071707
303.8716	403.2075	422.6498	680.1983	736.8655	745.9559	804.2316	888.5177	895.4431	913.189	958.2505	958.8662	980.4346	983.8949	1012.5733	1051.35	1085.004	1090.4503	1120.6917	1124.7877	1164.4107	1180.6367	1208.0082	1232.5752	1252.584	1265.2706	1279.9713	1322.5989	1386.3111	1516.6289	1520.5528	3018.0336	3047.4056	3055.7523	3101.2918	3101.782	3107.4382	3117.1248	3135.7521
C1C2C3COC2C13	C1[C@H]2[C@@H]3CO[C@H]2[C@H]13	
InChI=1S/C6H8O/c1-3-5-2-7-6(3)4(1)5/h3-6H,1-2H2	InChI=1S/C6H8O/c1-3-5-2-7-6(3)4(1)5/h3-6H,1-2H2/t3-,4+,5-,6+
