14
gdb 3169	6.09502	2.42719	2.04139	1.4295	58.37	-0.2303	0.0217	0.252	648.3844	0.115066	-324.57501	-324.569147	-324.568203	-324.60479	22.049	
C	-0.0825510744	 1.4623947486	-0.0329025474	-0.310699
C	 1.2923161919	 0.8359386805	-0.0054278696	-0.310698
C	 0.0652155002	-0.0334647084	 0.0209473763	 0.342886
C	-0.3457614658	-0.8823019592	 1.2321202084	-0.172617
O	-0.8813525481	-2.0843035074	 0.6278028594	-0.225005
C	-0.7677879615	-1.8937956612	-0.7109001858	 0.106391
N	-0.2678971158	-0.8160307413	-1.1531901821	-0.295901
H	-0.4379197578	 1.9669800918	 0.8603445078	 0.112587
H	-0.4286362772	 1.8873654286	-0.967882584	 0.129298
H	 1.8707344722	 0.8396599503	-0.921932689	 0.129297
H	 1.87639307	 0.9124682182	 0.9065924725	 0.112588
H	 0.4923123169	-1.1662256937	 1.8768801142	 0.120391
H	-1.1307492715	-0.4267006379	 1.844425619	 0.12039
H	-1.1311273891	-2.7176505291	-1.3138881497	 0.141091
84.6418	287.7847	311.324	360.5858	523.58	595.8874	775.2216	805.0022	859.0636	861.6255	928.5804	941.1752	962.9011	967.0476	994.0493	1055.8762	1070.293	1095.2431	1116.8547	1192.3157	1205.8979	1245.3699	1315.0847	1344.3341	1391.679	1454.9986	1495.9091	1518.9876	1698.4059	3037.3732	3081.1628	3127.8677	3131.3615	3216.7208	3223.1589	3230.6
C1CC11COC=N1	C1CC21COC=N2	
InChI=1S/C5H7NO/c1-2-5(1)3-7-4-6-5/h4H,1-3H2	InChI=1S/C5H7NO/c1-2-5(1)3-7-4-6-5/h4H,1-3H2
