10
gdb 2822	4.77263	1.98473	1.52747	2.9466	49.03	-0.284	-0.0679	0.2161	733.3497	0.064994	-359.296697	-359.290245	-359.2893	-359.327559	21.671	
O	-0.2695578076	 0.3168617191	 0.736582433	-0.227713
C	 0.2620193036	 0.7747824971	-0.2390232031	 0.147808
C	 1.3836718229	 1.7692334552	-0.1507760108	-0.039155
O	 2.3022356853	 1.7680306519	-1.2451239991	-0.209589
C	 1.4664788751	 2.9044153122	-1.1096672169	-0.08693
C	 0.4654916013	 3.1145858332	-2.13572782	 0.303134
N	-0.3285092735	 3.314740051	-2.9508117677	-0.306732
H	-0.0223477201	 0.4959852326	-1.2745144671	 0.120106
H	 1.8142364055	 1.9079963974	 0.8392967871	 0.139561
H	 1.9591343774	 3.8138345903	-0.7703823256	 0.159508
88.8374	156.0535	210.8844	317.0616	335.6473	481.634	571.2342	588.1458	802.8465	890.3857	936.8096	1025.2983	1033.8895	1124.1997	1142.8356	1250.2768	1331.4639	1388.6167	1435.2514	1833.9828	2364.6282	2934.4429	3135.6556	3148.9664
O=CC1OC1C#N	O=C[C@H]1O[C@H]1C#N	
InChI=1S/C4H3NO2/c5-1-3-4(2-6)7-3/h2-4H	InChI=1S/C4H3NO2/c5-1-3-4(2-6)7-3/h2-4H/t3-,4+/m0/s1
