15
gdb 1535	8.90844	1.27073	1.13592	2.6142	55.18	-0.2634	0.0163	0.2797	1030.2202	0.122535	-382.804255	-382.795769	-382.794825	-382.837895	27.427	
C	 0.0309589485	 1.4052072458	-0.0810875854	-0.224179
O	-0.0078495433	-0.0001554017	 0.0084178435	-0.210972
C	 0.613075074	-0.6233955523	-1.0743467746	-0.170495
C	 0.5309773045	-2.1319509238	-0.9038882613	 0.412601
O	 0.0192474234	-2.7205710093	 0.0073314311	-0.333507
O	 1.1343034351	-2.7242931191	-1.9561767496	-0.234628
C	 1.1345375423	-4.1573236448	-1.9319484094	-0.238566
H	 1.0645645948	 1.785766216	-0.100173871	 0.106218
H	-0.4863698899	 1.7725065656	-0.981640897	 0.106212
H	-0.4750388136	 1.7981026418	 0.803265046	 0.135177
H	 0.1403670436	-0.3578651028	-2.0355854484	 0.117154
H	 1.6767158928	-0.3428648063	-1.1631768556	 0.11714
H	 1.6540005633	-4.4699160405	-2.837732583	 0.133302
H	 1.654691468	-4.5278055063	-1.0449826879	 0.142309
H	 0.1118688865	-4.5428931722	-1.9247048874	 0.142233
61.777	79.1406	117.47	154.9286	167.6694	238.55	305.8497	362.0628	431.2054	601.1249	716.9341	910.3619	991.443	1039.6203	1054.8419	1175.4637	1180.0686	1184.1107	1206.7059	1220.0544	1249.032	1251.8168	1417.5429	1473.3841	1475.3104	1482.4803	1487.0728	1493.4344	1498.7974	1517.0235	1852.491	2957.3403	2972.7186	2982.2482	3015.2429	3052.1818	3123.2438	3126.5116	3159.4074
COCC(=O)OC	COCC(=O)OC	
InChI=1S/C4H8O3/c1-6-3-4(5)7-2/h3H2,1-2H3	InChI=1S/C4H8O3/c1-6-3-4(5)7-2/h3H2,1-2H3
