12
gdb 4594	6.00272	1.59348	1.25921	2.203	59.3	-0.2306	-0.0444	0.1861	868.1396	0.085948	-414.718842	-414.712593	-414.711648	-414.749102	23.871	
O	 0.0402853844	 1.358691219	 0.1649824059	-0.439155
C	 0.056971747	 0.0028443264	 0.0446892277	 0.296545
C	 0.0549332159	-0.6865090557	-1.1657357493	-0.102437
N	 0.0717407649	-2.015897031	-1.2390904803	-0.277416
C	 0.0908807001	-2.6577296011	-0.0765628146	 0.45026
O	 0.1077285765	-4.0001519987	-0.1463640369	-0.396239
N	 0.0948321651	-2.1112321515	 1.1425570301	-0.338607
C	 0.0778461126	-0.782406395	 1.1964539557	-0.038781
H	 0.0267259956	 1.7579063113	-0.711655715	 0.303359
H	 0.0391403783	-0.1454678964	-2.1126815505	 0.108708
H	 0.1202123572	-4.3162545457	 0.7666558079	 0.30492
H	 0.0806800925	-0.3142934816	 2.1775179293	 0.128843
136.8373	312.6919	343.3859	393.1553	435.6605	475.3442	517.0486	525.6803	558.9215	666.5497	799.4109	819.9054	899.1564	943.0581	975.2826	1046.1715	1161.082	1214.0764	1286.5442	1314.6165	1354.2666	1392.2395	1464.9183	1518.025	1618.7229	1657.8918	3120.9314	3168.7478	3791.2138	3815.4526
OC1=CN=C(O)N=C1	Oc1cnc(O)nc1	
InChI=1S/C4H4N2O2/c7-3-1-5-4(8)6-2-3/h1-2,7H,(H,5,6,8)	InChI=1S/C4H4N2O2/c7-3-1-5-4(8)6-2-3/h1-2,7H,(H,5,6,8)
