7
gdb 3900	5.70645	3.2616	2.21508	0.8069	40.62	-0.2886	-0.1401	0.1485	509.6496	0.028773	-407.364323	-407.358989	-407.358045	-407.393485	18.268	
O	-0.0038222182	 0.0796485233	-0.3605398283	-0.243192
C	-0.0136996141	 1.1985352289	 0.0492546676	 0.487575
N	-1.2128911076	 1.9060324606	 0.345505434	-0.115813
N	-1.2496568436	 3.1136395312	 0.0868564251	 0.103589
O	-0.0538794551	 3.7209570096	-0.3872021317	-0.219933
N	 1.1700876223	 3.1466734012	 0.0549969071	 0.103589
N	 1.1731170764	 1.9386043053	 0.3140891662	-0.115815
140.3177	255.1264	425.342	425.9885	541.0442	591.9416	661.3755	744.1518	799.6329	843.8604	1060.4928	1117.0946	1519.1849	1626.5605	1877.5831
O=C1N=NON=N1	O=c1nnonn1	
InChI=1S/CN4O2/c6-1-2-4-7-5-3-1	InChI=1S/CN4O2/c6-1-2-4-7-5-3-1
