17
gdb 1617	4.03849	1.83698	1.5938	1.3225	65.73	-0.2636	0.0312	0.2948	851.9154	0.145386	-309.686862	-309.678138	-309.677194	-309.719333	31.694	
C	-0.0581342136	 1.567538543	 0.0973019049	-0.407276
C	-0.0405462943	 0.0373936078	-0.0015513422	 0.039414
C	-1.4584336402	-0.545347728	 0.0201389266	-0.400389
C	 0.7097566475	-0.4497362006	-1.270033244	-0.047106
O	 0.0882416605	 0.0020114573	-2.4729795834	-0.42404
C	 2.132340851	-0.0971297607	-1.2373464594	 0.297726
C	 3.2904479672	 0.2264728022	-1.2161000737	-0.446322
H	 0.9538803754	 1.9826948648	 0.0694364542	 0.124247
H	-0.6352928031	 2.0056746092	-0.7248063253	 0.112662
H	-0.5292975388	 1.8881051527	 1.0311678956	 0.116662
H	 0.5200980911	-0.359268621	 0.8550237772	 0.083304
H	-2.0124062834	-0.2339767557	-0.8702866318	 0.132077
H	-1.4397176084	-1.6404597138	 0.0378437258	 0.109686
H	-2.0067114085	-0.204654646	 0.9037571682	 0.108449
H	 0.6247046592	-1.5431340862	-1.3093242688	 0.11316
H	 0.3672066936	 0.911867995	-2.6202219204	 0.288655
H	 4.3183481046	 0.4938607202	-1.2024340036	 0.199089
81.1675	148.6417	203.053	213.2758	235.707	272.915	293.9327	339.586	360.374	497.6651	552.7637	623.8864	640.0878	669.7989	797.2219	896.6192	932.1195	965.367	1000.0915	1016.9985	1111.3466	1145.3919	1202.0049	1260.0136	1301.4556	1348.4791	1366.6849	1396.9969	1416.9797	1421.1042	1487.3686	1496.8343	1504.4171	1514.6731	2229.0047	3022.2828	3031.3863	3033.0914	3036.934	3099.8078	3100.2161	3111.3222	3117.2873	3502.4269	3818.2374
CC(C)C(O)C#C	CC(C)[C@@H](O)C#C	
InChI=1S/C6H10O/c1-4-6(7)5(2)3/h1,5-7H,2-3H3	InChI=1S/C6H10O/c1-4-6(7)5(2)3/h1,5-7H,2-3H3/t6-/m0/s1
