13
gdb 2794	5.11018	1.98427	1.53607	1.5444	50.84	-0.2602	-0.0407	0.2195	758.3969	0.100524	-381.574124	-381.567261	-381.566317	-381.605445	23.942	
O	 0.0277564243	 1.4095236151	-0.1466245084	-0.41373
C	 0.0461269203	 0.0625377407	 0.2742499817	-0.065703
C	-1.3295770596	-0.5674381188	 0.0855212304	-0.01007
O	-1.7311518691	-0.5232948814	-1.3126256178	-0.302207
C	-1.8114025224	-1.9599051033	-1.4407934211	-0.189022
C	-1.4143630713	-2.0995512883	 0.0346636235	 0.332751
O	-1.2375510215	-2.9953327498	 0.8004529644	-0.265793
H	-0.29541831	 1.4057879615	-1.0559162989	 0.29646
H	 0.7994824576	-0.5246786118	-0.2742268952	 0.092856
H	 0.3164252263	 0.0518784634	 1.3346384162	 0.128167
H	-2.0709173338	-0.0777205147	 0.7295925141	 0.118217
H	-2.8207968656	-2.3098295756	-1.6896880707	 0.139708
H	-1.0948159551	-2.3698176569	-2.1632863181	 0.138365
86.7161	127.2257	150.6102	301.4687	392.4298	441.973	509.3108	560.915	699.8061	815.0574	863.7002	949.9185	1002.8978	1047.1937	1074.6184	1092.8324	1098.4498	1138.9909	1209.8583	1240.1659	1288.4348	1322.6412	1392.4942	1422.0442	1479.7433	1496.6155	1924.6617	2981.6932	3022.2601	3039.8514	3071.6994	3089.4658	3789.3789
OCC1OCC1=O	OC[C@H]1OCC1=O	
InChI=1S/C4H6O3/c5-1-4-3(6)2-7-4/h4-5H,1-2H2	InChI=1S/C4H6O3/c5-1-4-3(6)2-7-4/h4-5H,1-2H2/t4-/m1/s1
