19
gdb 1120	4.73278	1.48466	1.31265	2.4533	67.94	-0.2422	-0.0085	0.2337	1002.4251	0.168505	-310.955296	-310.946184	-310.94524	-310.98921	31.985	
C	 0.1221477314	 1.6586592	-0.088765826	-0.389249
C	 0.0402409044	 0.1273265379	-0.0206844072	 0.05666
C	 0.6912502007	-0.5169617284	-1.2510409596	-0.396949
C	 0.6697026651	-0.4107179462	 1.2712845162	-0.293065
C	-0.1144267986	-0.1096615588	 2.5442016814	 0.381924
C	 0.5953969579	-0.4164309497	 3.8523410269	-0.472099
O	-1.2402128017	 0.3342180761	 2.5220047237	-0.296043
H	 1.1664857057	 1.9956552458	-0.0986193651	 0.102323
H	-0.35313388	 2.034361065	-1.0007683311	 0.110478
H	-0.3806425109	 2.1184817206	 0.7653493662	 0.131916
H	-1.020298746	-0.1496783182	 0.0006285223	 0.093963
H	 1.7609369326	-0.2798414936	-1.3038094743	 0.108953
H	 0.5935019496	-1.6079678876	-1.2338119046	 0.107398
H	 0.227874274	-0.1540352364	-2.174277624	 0.112882
H	 0.7657866424	-1.5062134043	 1.2226663357	 0.116967
H	 1.6987212716	-0.0429290725	 1.3927607181	 0.10811
H	 1.4314313325	 0.2796676114	 3.989509634	 0.140976
H	-0.0993537951	-0.3125746594	 4.6866434215	 0.141534
H	 1.0222449042	-1.4250563416	 3.8413290761	 0.133323
48.0588	93.4631	108.1949	170.6534	227.0637	253.4714	310.0786	342.1581	413.2435	426.9865	481.2309	593.0372	804.3523	824.8877	843.0076	929.6444	948.864	970.0852	974.2609	1005.1247	1135.5403	1148.3582	1185.9835	1198.9875	1254.3928	1316.0211	1363.2384	1379.677	1391.2132	1399.8197	1420.8586	1445.6958	1464.2249	1476.1437	1488.784	1494.1585	1505.6778	1513.2537	1808.9022	3000.6143	3021.3914	3025.4678	3029.3642	3035.7963	3046.5628	3085.1335	3092.1502	3096.3959	3098.5509	3123.801	3151.2963
CC(C)CC(C)=O	CC(C)CC(=O)C	
InChI=1S/C6H12O/c1-5(2)4-6(3)7/h5H,4H2,1-3H3	InChI=1S/C6H12O/c1-5(2)4-6(3)7/h5H,4H2,1-3H3
