15
gdb 2760	3.70344	2.59658	1.83813	1.3838	62.46	-0.2532	0.039	0.2922	717.7369	0.124524	-308.472272	-308.465278	-308.464334	-308.502955	26.553	
O	 0.445606374	 0.9618279166	-0.6920715811	-0.425737
C	 0.065782963	-0.1723845288	 0.0213794533	 0.165578
C	-0.0737863236	-0.1293235012	 1.5664317851	-0.250942
C	-1.291859836	-1.0806880697	 1.4435751389	-0.226654
C	-1.4282544799	-0.6818591893	-0.0646973287	-0.223759
C	-2.3479988812	 0.412229968	-0.3051274096	 0.306592
C	-3.0499405652	 1.3710395172	-0.5022350046	-0.460221
H	-0.2746864607	 1.6024510827	-0.6220013962	 0.282349
H	 0.7390726208	-0.9772457593	-0.2880416406	 0.09412
H	 0.7814881869	-0.4522429265	 2.1633589754	 0.102496
H	-0.3796916054	 0.8687412169	 1.8937405695	 0.109356
H	-1.0119671195	-2.1323885749	 1.5403622907	 0.108838
H	-2.1559714053	-0.8813871105	 2.0774408615	 0.114965
H	-1.6135873153	-1.496729352	-0.7698351192	 0.101692
H	-3.7066370725	 2.1868228009	-0.6791225345	 0.201328
123.2964	140.6973	225.4055	343.6123	410.2992	427.514	481.7457	608.437	625.7973	643.302	670.011	749.8508	813.1372	891.3505	921.432	962.8833	1020.9003	1067.3894	1094.9533	1155.6713	1175.3389	1222.1536	1245.3604	1257.9519	1261.5398	1337.7286	1349.6605	1443.7752	1481.031	1497.2935	2220.1203	3060.8492	3064.7529	3071.2137	3079.2461	3119.1247	3139.0073	3501.3769	3754.6783
OC1CCC1C#C	O[C@H]1CC[C@H]1C#C	
InChI=1S/C6H8O/c1-2-5-3-4-6(5)7/h1,5-7H,3-4H2	InChI=1S/C6H8O/c1-2-5-3-4-6(5)7/h1,5-7H,3-4H2/t5-,6+/m1/s1
