15
gdb 2264	3.7752	2.85273	2.18155	1.987	56.66	-0.2469	0.0838	0.3307	662.1351	0.124287	-345.620113	-345.613398	-345.612454	-345.650387	25.463	
C	-0.1070254638	 1.5106984911	 0.0556022503	-0.51185
C	 0.1721517945	 0.0468590876	-0.0248642062	 0.377941
O	-0.7614262082	-0.8648841914	 0.5919682048	-0.303581
C	 0.6323929376	-0.9593250756	 0.9496759446	-0.031467
C	 1.3001635186	-1.8153542911	-0.1254734986	-0.289458
C	 0.771138542	-0.7759073309	-1.1907626109	 0.095211
O	-0.1388860064	-1.2147648736	-2.1590251981	-0.435552
H	 0.7906288592	 2.0897701657	-0.1839824778	 0.126669
H	-0.8883893119	 1.7920434634	-0.6589838167	 0.138165
H	-0.4450024945	 1.783775562	 1.0588046605	 0.13471
H	 0.8736683223	-0.8524509442	 2.0010792818	 0.10475
H	 2.3910697016	-1.8367763165	-0.0622031593	 0.107261
H	 0.9148959754	-2.8332419082	-0.2243913564	 0.108545
H	 1.5833999015	-0.2657474583	-1.7147604883	 0.091643
H	-0.9018534181	-1.5460720801	-1.6669302398	 0.287013
149.5265	189.4611	227.2379	290.4281	393.9488	460.3387	506.9252	591.6153	671.5641	717.1486	813.4448	861.3771	897.1679	906.2684	967.3621	1032.2595	1044.4607	1097.9381	1116.544	1147.0228	1193.5538	1201.9455	1260.4737	1274.7349	1314.0061	1400.6577	1431.5017	1456.7096	1476.6753	1486.9539	1494.9973	3036.0874	3063.3002	3085.9691	3099.7691	3120.8649	3123.2034	3187.3735	3764.7776
CC12OC1CC2O	C[C@]12O[C@H]1C[C@H]2O	
InChI=1S/C5H8O2/c1-5-3(6)2-4(5)7-5/h3-4,6H,2H2,1H3	InChI=1S/C5H8O2/c1-5-3(6)2-4(5)7-5/h3-4,6H,2H2,1H3/t3-,4+,5-/m1/s1
