16
gdb 4123	3.81425	1.66419	1.30462	0.9404	69.67	-0.2287	0.0058	0.2345	943.9272	0.129493	-379.835651	-379.827879	-379.826935	-379.867524	29.116	
C	 0.0216182874	 1.5344837553	 0.0090395199	-0.490419
C	-0.0414370399	 0.0400580905	-0.0738364779	 0.245104
C	-0.858517835	-0.8214340372	 0.8262631249	-0.275679
N	 0.5998115099	-0.928216085	 0.9442839415	-0.16044
C	 1.0133330752	-1.8209384191	-0.2038445408	-0.258614
C	 0.4780274427	-0.7986976871	-1.1849079614	 0.377576
N	 0.6261574585	-0.5220368667	-2.4118085059	-0.261548
O	 1.2986531633	-1.5646768538	-3.0791422879	-0.391941
H	 0.9884525307	 1.9044144834	-0.3444401847	 0.133992
H	-0.7594031535	 1.9841290846	-0.6132975518	 0.135613
H	-0.1261241621	 1.8684103031	 1.0396235126	 0.130563
H	-1.3226459731	-0.3261420775	 1.674492896	 0.126411
H	-1.4233201304	-1.6614683258	 0.4262878777	 0.117132
H	 2.100286877	-1.921745447	-0.2558950198	 0.140262
H	 0.5558579255	-2.8148525007	-0.1852913639	 0.123853
H	 1.3656887738	-1.220875377	-3.9762747185	 0.308134
117.5864	153.9019	186.7172	231.0451	298.4901	349.6755	432.1333	471.8252	512.6849	542.1652	624.9335	731.1281	765.5134	864.5192	878.9838	969.5386	976.2749	1002.5699	1055.4362	1085.4026	1100.2672	1121.4279	1130.5631	1190.2357	1260.492	1305.3169	1355.3945	1410.7881	1427.4164	1474.7588	1479.2271	1492.6586	1507.0359	1790.5538	3039.5994	3055.008	3098.4241	3105.9887	3113.0115	3122.2296	3191.3694	3818.5953
CC12CN1CC2=NO	C[C@]12CN1CC2=NO	
InChI=1S/C5H8N2O/c1-5-3-7(5)2-4(5)6-8/h8H,2-3H2,1H3	InChI=1S/C5H8N2O/c1-5-3-7(5)2-4(5)6-8/h8H,2-3H2,1H3/t5-,7?/m1/s1
