13
gdb 4686	6.36973	1.38085	1.1429	1.0856	72.38	-0.2273	-0.0285	0.1988	990.0043	0.094983	-361.474479	-361.467204	-361.46626	-361.506129	26.244	
C	 0.0103668631	 1.4351859609	 0.1408759096	-0.49814
C	-0.0174658747	-0.0378964991	-0.0448884259	 0.385795
N	-0.1254273628	-0.7099521206	-1.1524512346	-0.288996
C	-0.0985473794	-2.0341235782	-0.7622750146	-0.205281
C	 0.0272280679	-2.1104352384	 0.5929257029	 0.184387
O	 0.0801476141	-0.8131022528	 1.0614816467	-0.20129
C	 0.105046796	-3.1692484407	 1.5088092063	 0.236691
C	 0.1704220998	-4.0915365677	 2.2807561183	-0.407589
H	 0.9437075319	 1.7525736782	 0.6170400418	 0.15101
H	-0.0766631476	 1.9159442457	-0.8334401759	 0.160332
H	-0.8147118056	 1.7652554855	 0.7803209201	 0.151011
H	-0.1702400309	-2.8447214766	-1.469342995	 0.133634
H	 0.2280558283	-4.9046008662	 2.9614362902	 0.198435
100.4588	141.8534	147.4295	266.1752	336.9031	457.9989	538.5877	547.7309	566.9254	684.4304	691.6336	694.3218	714.3118	872.7737	973.4669	988.5978	1035.3853	1066.6855	1169.7009	1211.0978	1267.3036	1343.6621	1411.4991	1475.1227	1478.8398	1574.5498	1618.3111	2233.9445	3046.2084	3101.4958	3160.6928	3272.3266	3502.3228
CC1=NC=C(O1)C#C	Cc1ncc(o1)C#C	
InChI=1S/C6H5NO/c1-3-6-4-7-5(2)8-6/h1,4H,2H3	InChI=1S/C6H5NO/c1-3-6-4-7-5(2)8-6/h1,4H,2H3
