15
gdb 2779	4.28002	2.24838	1.58856	3.9218	56.77	-0.2707	0.0098	0.2805	778.5544	0.125233	-345.686524	-345.6795	-345.678556	-345.717833	24.829	
C	-0.0405228161	 1.5968914398	-0.0488676553	-0.385091
C	 0.0903220171	 0.0747870482	 0.0688220584	-0.201894
C	 0.7252158353	-0.5521334693	-1.17313147	-0.170792
C	 0.7006731029	-2.0846877764	-1.3366316174	-0.105944
O	-0.111632999	-1.9548940086	-2.5487591666	-0.238722
C	-0.1414095172	-0.5865777427	-2.4386312674	 0.459927
O	-0.7071410568	 0.1860611078	-3.1441713545	-0.323636
H	 0.942652092	 2.0707026626	-0.1432627053	 0.117112
H	-0.6282162071	 1.869119169	-0.929749338	 0.151903
H	-0.5296950163	 2.0153049245	 0.8353282462	 0.117354
H	 0.6976241361	-0.1867437348	 0.943997427	 0.106113
H	-0.897882027	-0.3734410924	 0.2316180887	 0.10995
H	 1.7062340741	-0.1091008075	-1.3716328206	 0.112899
H	 1.651096506	-2.5737877591	-1.5583153338	 0.125754
H	 0.1545628858	-2.635485931	-0.5670120213	 0.125067
97.2562	131.2981	172.3946	253.3321	303.1156	383.7664	506.6928	696.6652	748.9534	776.9756	832.5021	907.6506	954.9093	974.6195	1012.4719	1093.1706	1106.6521	1123.1455	1155.4359	1181.6468	1228.7885	1284.6616	1319.5384	1361.2475	1378.206	1416.4266	1490.4032	1499.6351	1511.3148	1516.3303	1929.0234	3023.8944	3039.3901	3054.5778	3068.7131	3073.675	3106.8116	3125.5092	3130.3091
CCC1COC1=O	CC[C@H]1COC1=O	
InChI=1S/C5H8O2/c1-2-4-3-7-5(4)6/h4H,2-3H2,1H3	InChI=1S/C5H8O2/c1-2-4-3-7-5(4)6/h4H,2-3H2,1H3/t4-/m0/s1
