15
gdb 86	6.14183	5.17679	3.79297	0.1068	52.92	-0.2633	0.0893	0.3526	439.1643	0.137025	-196.409349	-196.403398	-196.402453	-196.437676	22.258	
C	-0.0391320385	 1.5045630543	 0.049789134	-0.44752
C	 0.0098585642	-0.0111387962	 0.0124861886	 0.39102
C	-1.2416798109	-0.666630443	-0.5398997854	-0.447519
C	 1.3380338706	-0.6689574802	-0.2740043043	-0.292637
C	 0.7512644169	-0.722215861	 1.118625713	-0.292639
H	 0.8863303999	 1.9249004021	 0.4557935831	 0.109883
H	-0.1818387829	 1.9204574284	-0.9548929106	 0.111882
H	-0.8683207582	 1.8581571812	 0.6743964837	 0.111881
H	-1.4357088955	-0.3434438724	-1.5697641083	 0.111881
H	-1.1532675722	-1.7575779956	-0.5443383228	 0.109882
H	-2.1222141635	-0.4057081966	 0.0595136103	 0.111882
H	 1.3439837404	-1.5823520773	-0.8600508441	 0.105501
H	 2.2019689746	-0.0332908426	-0.4392932599	 0.105501
H	 1.2194957647	-0.1224601776	 1.8924657976	 0.105501
H	 0.3615331904	-1.6715371735	 1.471719315	 0.105501
213.7049	241.2325	328.1558	347.1051	355.6578	393.6234	689.2045	787.8772	855.224	896.9617	950.4191	952.3797	973.5009	1047.9329	1067.5418	1078.4216	1094.1638	1159.1978	1189.0303	1318.4732	1355.4929	1411.021	1424.5243	1470.1041	1480.5225	1493.9595	1500.009	1502.1182	1518.1186	3016.4703	3021.3738	3075.3244	3078.5285	3095.6185	3098.0696	3123.1138	3128.1079	3200.0312	3214.6024
CC1(C)CC1	CC1(C)CC1	
InChI=1S/C5H10/c1-5(2)3-4-5/h3-4H2,1-2H3	InChI=1S/C5H10/c1-5(2)3-4-5/h3-4H2,1-2H3
