15
gdb 1906	5.57165	2.1507	1.89008	3.5071	62.13	-0.2378	-0.005	0.2328	711.9686	0.124714	-308.516808	-308.510297	-308.509353	-308.546939	24.837	
C	 0.0247270164	 1.5370444016	 0.0483056207	-0.49284
C	 0.0248899826	 0.0372756238	 0.0031965098	 0.355486
C	-0.8741623187	-0.8308521562	 0.806026806	-0.320889
C	 0.6307588343	-0.9590434114	 1.0418964627	-0.211286
C	 1.243749043	-1.7178660744	-0.0903880673	 0.431359
O	 2.0775517019	-2.5767830567	-0.1577053393	-0.320771
C	 0.5908777447	-0.8012347169	-1.1608548364	-0.413391
H	 1.0076324641	 1.9433413969	-0.213701583	 0.125877
H	-0.7040834735	 1.9493655559	-0.6594420541	 0.128674
H	-0.2392353835	 1.9038617583	 1.0452190413	 0.123642
H	-1.3971591557	-0.3522203407	 1.6286861902	 0.122751
H	-1.425321291	-1.6475179083	 0.3469170425	 0.120563
H	 1.0600458763	-0.7904036973	 2.0222974352	 0.106194
H	-0.1319370025	-1.2455240527	-1.8519105181	 0.116302
H	 1.3715966614	-0.293344882	-1.7358474102	 0.128329
114.5363	213.2574	286.1508	345.8552	396.6004	466.6604	550.167	605.2128	656.529	759.567	813.6962	917.1601	943.6502	958.2998	985.7782	1004.6955	1057.155	1068.8134	1095.3514	1113.1722	1144.6318	1207.5396	1245.0476	1280.0802	1387.9486	1426.785	1457.9384	1485.8231	1497.3189	1505.7976	1880.1194	3026.2267	3051.0786	3086.3872	3102.443	3105.0929	3111.3647	3189.7465	3199.2731
CC12CC1C(=O)C2	C[C@]12C[C@H]1C(=O)C2	
InChI=1S/C6H8O/c1-6-2-4(6)5(7)3-6/h4H,2-3H2,1H3	InChI=1S/C6H8O/c1-6-2-4(6)5(7)3-6/h4H,2-3H2,1H3/t4-,6+/m0/s1
