14
gdb 571	10.85908	1.95333	1.7863	0.6877	58.69	-0.2584	0.0556	0.314	694.8847	0.118801	-233.249538	-233.243054	-233.24211	-233.279588	23.656	
C	 0.0139626706	-1.1283340397	-0.2915618507	-0.455727
C	 0.0054771865	 0.0469440363	-0.0399722988	 0.311958
C	 0.0204718065	 1.4732700154	 0.2728911765	-0.369135
C	 1.4052848059	 2.0954195486	 0.1634264078	 0.042284
C	 1.9090990634	 2.5912069026	-1.1649852411	-0.246619
C	 1.5421436718	 3.5756489316	-0.079533419	-0.278025
H	 0.01323857	-2.1656784445	-0.51731077	 0.193676
H	-0.6669643398	 2.0017462825	-0.4009974482	 0.124577
H	-0.3747089533	 1.6259926605	 1.2862540938	 0.130336
H	 2.1425268333	 1.6400557879	 0.8177575055	 0.094172
H	 2.9573607882	 2.4523475226	-1.4041436352	 0.113854
H	 1.2458158789	 2.5088030846	-2.019927109	 0.114773
H	 0.6334890903	 4.155322614	-0.207892106	 0.110542
H	 2.3387821677	 4.1095103974	 0.4264290344	 0.113335
78.3494	146.3482	327.0261	336.3103	352.5569	509.8635	615.092	635.8775	767.8216	798.3771	841.1028	893.8221	922.1044	987.5517	1002.5805	1058.6964	1079.2988	1136.4235	1148.3278	1196.206	1227.3124	1262.3416	1321.4648	1407.6545	1465.1218	1473.029	1507.8826	2238.4644	3012.0516	3042.1551	3129.4901	3134.8715	3153.9897	3207.9171	3223.1344	3507.1928
C#CCC1CC1	C#CCC1CC1	
InChI=1S/C6H8/c1-2-3-6-4-5-6/h1,6H,3-5H2	InChI=1S/C6H8/c1-2-3-6-4-5-6/h1,6H,3-5H2
