19
gdb 1084	4.29531	1.67601	1.65965	0.6059	72.66	-0.2593	0.0514	0.3107	881.4735	0.1684	-273.765811	-273.756977	-273.756033	-273.798006	33.308	
C	-0.061007315	 1.5526551503	 0.0611204519	-0.400309
C	-0.0030617748	 0.0163031826	 0.0390231291	 0.260082
C	 0.7053330065	-0.5004405613	 1.3021051897	-0.40031
C	-1.4295829226	-0.5551942172	-0.0255575524	-0.404409
C	 0.7598557082	-0.4665094715	-1.2308442278	-0.361889
C	 2.141062594	-0.0089832849	-1.3265474571	 0.309566
C	 3.2795389326	 0.3719607591	-1.3990317448	-0.451437
H	 0.9436839808	 1.9846321423	 0.0770321413	 0.126689
H	-0.5810599231	 1.941630071	-0.8216308237	 0.106255
H	-0.5983258188	 1.9059697036	 0.947538608	 0.108046
H	 0.1770496226	-0.1710659377	 2.2030537034	 0.108043
H	 0.739193542	-1.595725873	 1.3165616408	 0.106255
H	 1.7335492549	-0.1314802385	 1.3559952935	 0.126694
H	-1.9585385831	-0.2065300815	-0.9196878611	 0.108672
H	-1.4194628271	-1.650766567	-0.0467780101	 0.108673
H	-2.0119818074	-0.2445562093	 0.8480672826	 0.11107
H	 0.7443945746	-1.564281887	-1.2565835916	 0.122973
H	 0.2104520708	-0.1333287606	-2.121433937	 0.122973
H	 4.2854408248	 0.7038771106	-1.4710106348	 0.192365
92.1121	150.3295	215.5127	268.3348	270.9077	306.7845	318.8459	360.4199	381.2721	401.7088	403.6437	543.339	611.6174	634.1274	747.6586	893.0226	894.239	939.1041	942.6082	963.1008	981.2921	1051.9443	1063.5239	1186.2509	1227.916	1260.9348	1307.3155	1339.2975	1399.6407	1400.69	1431.7875	1464.9689	1479.863	1486.3817	1488.1808	1505.6893	1507.4112	1518.6091	2232.7282	3010.7452	3022.7881	3027.1752	3034.0146	3043.8644	3088.9948	3093.1547	3093.8436	3099.655	3110.4461	3114.5054	3506.5784
CC(C)(C)CC#C	CC(C)(C)CC#C	
InChI=1S/C7H12/c1-5-6-7(2,3)4/h1H,6H2,2-4H3	InChI=1S/C7H12/c1-5-6-7(2,3)4/h1H,6H2,2-4H3
