15
gdb 3567	5.27493	2.92865	2.74105	1.8403	59.06	-0.2439	0.0678	0.3117	574.4829	0.126962	-308.450204	-308.444961	-308.444017	-308.478871	21.405	
C	-0.0013843432	 1.4554341526	-0.0825865065	-0.288825
C	 1.3299187631	 0.7700351743	 0.0464267374	-0.068332
C	 0.0176403818	-0.0382442147	 0.0506380426	-0.056786
C	 0.4439240388	-0.690544699	-1.2832303132	 0.112774
O	 0.029708043	-0.022292551	-2.5028176713	-0.298842
C	 1.3088325882	 0.6587794436	-2.6117688104	-0.106073
C	 1.7767297226	 0.0765551388	-1.2631185724	-0.066993
H	-0.3215902438	 1.9878315133	 0.8071800918	 0.111413
H	-0.3255279025	 1.9074482942	-1.0134109494	 0.131187
H	 1.9949235175	 0.9835481874	 0.8742803936	 0.088115
H	-0.4740020352	-0.5548173672	 0.8661891998	 0.083713
H	 0.3597492798	-1.7779541175	-1.345704517	 0.076885
H	 1.874156213	 0.2953450431	-3.4789577017	 0.100733
H	 1.1978284731	 1.7471761881	-2.6831950117	 0.102459
H	 2.7392211438	-0.4301638562	-1.2207352016	 0.078573
218.7415	313.9822	419.3182	549.7327	677.3604	740.0453	748.0019	834.6807	868.5361	888.0459	917.7478	931.1205	973.5517	980.8443	1000.7008	1013.031	1055.4603	1060.8826	1086.0956	1101.8753	1158.5947	1176.3379	1192.6271	1219.8294	1280.2682	1298.943	1306.2246	1345.7942	1363.3473	1486.9705	1518.345	3014.6988	3060.5184	3081.7982	3127.5251	3136.0017	3176.9154	3186.8643	3218.625
C1C2C1C1OCC21	C1[C@H]2[C@@H]1[C@H]1OC[C@@H]21	
InChI=1S/C6H8O/c1-3-4(1)6-5(3)2-7-6/h3-6H,1-2H2	InChI=1S/C6H8O/c1-3-4(1)6-5(3)2-7-6/h3-6H,1-2H2/t3-,4+,5-,6+/m0/s1
