17
gdb 3183	4.86945	2.02737	1.81541	2.7411	64.07	-0.2374	0.0662	0.3037	766.0916	0.149329	-305.841708	-305.834593	-305.833649	-305.872742	26.893	
C	 0.0668209108	 1.5571419431	 0.108475942	-0.493281
C	-0.0028517772	 0.0462343258	 0.0144022015	 0.323534
C	 1.045509039	-0.6605811822	-0.7746013869	-0.275478
N	 1.0461180929	-0.7387050561	 0.6974619082	-0.343527
C	-1.3575488137	-0.606136686	 0.0985559647	-0.006609
C	-2.5562807027	 0.0817255827	 0.6391929154	-0.253005
N	-2.4578336233	-0.21932352	-0.8017922055	-0.328528
H	 1.0794267317	 1.9110971542	-0.1064139087	 0.117761
H	-0.6044424677	 2.0462432282	-0.6070512635	 0.119985
H	-0.2082652031	 1.9032149436	 1.1106581682	 0.130511
H	 0.808780032	-1.5930649178	-1.2798643985	 0.122221
H	 1.80447725	-0.0592935845	-1.2688889123	 0.108002
H	 1.7525495349	-0.1128452462	 1.0772199623	 0.227174
H	-1.2816565881	-1.6807752563	 0.2457624686	 0.098076
H	-3.3104154097	-0.4877191214	 1.1751007799	 0.11963
H	-2.4628033212	 1.1146686407	 0.9616803257	 0.10793
H	-2.2082432247	 0.6259046721	-1.3106626709	 0.225603
69.3292	220.0958	238.9415	259.5967	362.7892	366.7895	438.3915	516.8169	680.288	816.5633	842.4808	855.6093	918.9293	933.7736	953.7507	973.4217	978.3636	1034.8851	1052.1829	1103.5809	1118.0222	1148.4046	1162.7123	1188.5932	1249.6017	1267.3754	1294.082	1322.832	1360.0971	1416.0405	1436.2873	1486.9764	1502.8334	1512.5336	1515.0619	3027.9642	3087.1972	3103.7778	3106.0746	3114.5559	3139.136	3189.944	3196.7116	3489.9249	3494.5173
CC1(CN1)C1CN1	C[C@]1(CN1)[C@H]1CN1	
InChI=1S/C5H10N2/c1-5(3-7-5)4-2-6-4/h4,6-7H,2-3H2,1H3	InChI=1S/C5H10N2/c1-5(3-7-5)4-2-6-4/h4,6-7H,2-3H2,1H3/t4-,5+/m1/s1
