18
gdb 229	4.5327	2.58644	2.52034	1.3435	59.74	-0.2601	0.0658	0.3259	660.7696	0.163685	-272.84753	-272.839427	-272.838483	-272.878675	29.948	
C	 0.0249797386	 1.5606213222	 0.122650479	-0.393251
C	-0.0050472486	 0.0383155657	-0.0404581766	-0.159679
C	 0.6927753483	-0.4977384635	-1.3046824298	 0.36085
C	 0.6570643108	-2.033199754	-1.3049925316	-0.410668
C	 0.0627844553	 0.0502150258	-2.5939766183	-0.41467
O	 2.0525217889	-0.0521137255	-1.2019741794	-0.460569
H	 1.0508510413	 1.9316167624	 0.0609002685	 0.135418
H	-0.5665419049	 2.0682604083	-0.6457250913	 0.110155
H	-0.3868320407	 1.8499108631	 1.0945089549	 0.106243
H	 0.4889363494	-0.424106085	 0.8222588907	 0.099062
H	-1.0408033369	-0.3220897676	-0.0386231448	 0.088507
H	-0.3705828988	-2.4103643745	-1.3350858537	 0.111346
H	 1.1825515101	-2.4335834166	-2.180273068	 0.098009
H	 1.1451451279	-2.4239016028	-0.4075417867	 0.119584
H	 0.1571053257	 1.1374260993	-2.6443131004	 0.124358
H	 0.5636383758	-0.3726983364	-3.4731710607	 0.099575
H	-0.9983622281	-0.2113855322	-2.6626285521	 0.112658
H	 2.5196301561	-0.3497105588	-1.9895949099	 0.273072
92.8542	212.7329	232.8726	254.7302	271.3801	281.8033	339.0648	367.0517	408.5363	454.0528	518.7381	726.8116	782.3509	887.0485	917.1508	951.3928	996.9696	1009.3966	1065.474	1074.1393	1163.3333	1216.1733	1223.371	1319.7797	1355.5176	1392.5871	1394.7988	1405.5206	1414.7531	1471.4085	1480.1656	1488.6153	1499.5355	1501.4243	1508.4748	1515.0052	3024.1122	3026.5332	3033.1921	3042.3673	3065.6399	3087.2922	3094.6588	3102.4529	3114.3506	3125.3789	3128.7125	3809.7651
CCC(C)(C)O	CCC(C)(C)O	
InChI=1S/C5H12O/c1-4-5(2,3)6/h6H,4H2,1-3H3	InChI=1S/C5H12O/c1-4-5(2,3)6/h6H,4H2,1-3H3
