12
gdb 3483	6.23996	2.97099	2.80694	1.1364	51.95	-0.2125	0.0603	0.2728	522.0026	0.090068	-323.235679	-323.230604	-323.229659	-323.264078	20.424	
O	-0.0886475099	 1.3861303024	-0.0445304862	-0.445246
C	 0.032923642	 0.0276684737	-0.0326862249	 0.368507
C	-1.1069565137	-0.9825724349	 0.0349358702	-0.161709
C	-0.2489107623	-1.9727005674	-0.7878876701	-0.034353
C	 0.8693078208	-0.9955704992	-0.8728019584	-0.145611
N	 0.8314664879	-1.9867314145	 0.2617702725	-0.172386
C	 0.0012945833	-0.9967124009	 1.0766009121	-0.106135
H	 0.6757403641	 1.7693577284	 0.4023090798	 0.294934
H	-2.1674273414	-0.8022020809	 0.1322378023	 0.103707
H	-0.489560015	-2.8429946481	-1.3876830209	 0.096746
H	 1.7159374203	-0.9195480974	-1.5457810808	 0.098007
H	-0.0125676259	-0.9369538713	 2.1576918143	 0.103539
289.7601	336.4346	388.8342	607.1672	657.0673	751.8395	768.1839	775.0252	846.9435	862.5019	878.173	903.3879	913.4342	972.8831	993.0964	1012.0846	1025.6391	1101.3747	1129.5046	1190.9875	1227.5208	1272.2662	1302.1311	1311.7486	1472.9088	3168.0755	3182.1071	3191.0489	3229.1536	3773.918
OC12C3C4C1N4C23	O[C@@]12[C@H]3[C@H]4[C@@H]1N4[C@@H]23	
InChI=1S/C5H5NO/c7-5-1-2-4(5)6(2)3(1)5/h1-4,7H	InChI=1S/C5H5NO/c7-5-1-2-4(5)6(2)3(1)5/h1-4,7H/t1-,2-,3+,4-,5+,6?/m0/s1
