12
gdb 889	6.98295	2.17101	1.66436	4.7064	52.31	-0.1795	0.0543	0.2338	689.3551	0.092148	-356.745773	-356.739247	-356.738303	-356.775816	24.112	
N	 0.1302214487	 1.4196575175	 0.144854747	-0.601635
C	-0.0154035833	 0.0319059385	 0.025229911	 0.309344
C	-1.0959247023	-0.776785738	-0.028056802	-0.169857
N	-0.6172484988	-2.098043851	-0.0520034499	-0.335076
C	 0.7637433279	-2.1360692289	 0.0041152319	 0.444434
O	 1.5012047142	-3.1012446932	 0.0393225497	-0.434055
N	 1.1146567426	-0.7832913802	 0.0129693075	-0.367674
H	 0.5963001879	 1.8323098547	-0.6584386804	 0.249057
H	-0.7671285194	 1.8733844576	 0.2623599079	 0.250296
H	-2.1435401079	-0.5401508942	-0.0857151124	 0.123582
H	-1.1693338999	-2.9352227391	-0.0081956371	 0.265464
H	 2.0505323801	-0.4798162738	 0.2190466766	 0.266118
157.807	211.1016	243.021	331.7408	389.0375	459.6327	524.7533	620.4355	638.115	649.198	752.787	764.2361	814.4559	982.8509	1015.1505	1080.1983	1141.9766	1208.7101	1278.1888	1366.8143	1385.6302	1460.4275	1638.217	1715.3176	1845.0153	3290.0706	3490.6797	3603.8582	3686.5057	3702.5766
NC1=CNC(=O)N1	Nc1c[nH]c(=O)[nH]1	
InChI=1S/C3H5N3O/c4-2-1-5-3(7)6-2/h1H,4H2,(H2,5,6,7)	InChI=1S/C3H5N3O/c4-2-1-5-3(7)6-2/h1H,4H2,(H2,5,6,7)
