15
gdb 1935	3.58459	2.88171	2.16533	2.0516	57.36	-0.2216	0.0728	0.2944	661.756	0.12389	-345.61283	-345.605786	-345.604842	-345.64342	26.653	
O	-0.1192105462	 1.4237031775	-0.0023947019	-0.461857
C	-0.0474357143	 0.0443154759	-0.0739791931	 0.319133
C	-0.3023788158	-0.8403566043	 1.1398432886	-0.417983
C	-1.1808946938	-0.9799377422	-0.0782481766	 0.380283
O	-2.5594781701	-0.8959728911	-0.088985247	-0.458523
C	-0.4700236653	-1.793497573	-1.1511563771	-0.260128
C	 0.6981938796	-0.7447634797	-1.152096462	-0.286261
H	 0.6177785634	 1.7419959552	 0.5315782003	 0.283828
H	 0.3927746197	-1.6182679357	 1.456538696	 0.099933
H	-0.7715539491	-0.2962889618	 1.9569214974	 0.101259
H	-2.8396861888	-0.2988556035	 0.6123934731	 0.287376
H	-0.2114096847	-2.8222308261	-0.8820011322	 0.097572
H	-1.0225948555	-1.7948391157	-2.0928408067	 0.115408
H	 0.7573093629	-0.1972956933	-2.0952730738	 0.110918
H	 1.693912088	-1.1184717222	-0.8882812149	 0.089041
115.7665	205.9433	223.431	292.6995	366.0123	392.8023	441.0623	567.7534	570.9385	694.0564	740.2768	795.8667	869.2198	925.9037	931.6707	975.9013	1024.3268	1063.2793	1109.7478	1123.8252	1190.0305	1205.172	1223.3428	1241.3892	1280.2457	1328.8273	1404.0314	1417.5312	1478.8131	1480.4476	1532.297	3038.0704	3055.6077	3075.5888	3104.1447	3122.8874	3172.3267	3779.7046	3820.2703
OC12CC1(O)CC2	O[C@@]12C[C@]1(O)CC2	
InChI=1S/C5H8O2/c6-4-1-2-5(4,7)3-4/h6-7H,1-3H2	InChI=1S/C5H8O2/c6-4-1-2-5(4,7)3-4/h6-7H,1-3H2/t4-,5+
