11
gdb 956	6.0306	2.83994	1.93072	1.3923	54.78	-0.2486	-0.0474	0.2013	601.9397	0.081528	-339.491316	-339.486232	-339.485288	-339.52006	19.287	
O	 0.1043870944	 1.3361036227	 0.1060933475	-0.409902
C	 0.0703770958	-0.0070666487	 0.0488041649	 0.408057
N	 0.0974783472	-0.5903359173	-1.1403997331	-0.330734
C	 0.0616761174	-1.9283818515	-1.1442458445	-0.017128
C	-0.0003139627	-2.6644338723	 0.0298618041	-0.025128
N	-0.027411719	-2.0667003094	 1.2295780817	-0.220702
C	 0.0076047219	-0.7428938644	 1.2444550077	-0.069374
H	 0.1456721496	 1.6488750283	-0.8087810608	 0.302501
H	 0.083510273	-2.4157311325	-2.1152296438	 0.119904
H	-0.0288615616	-3.7492737824	 0.0137064597	 0.115592
H	-0.0132027259	-0.2333044426	 2.2032135768	 0.126914
210.0968	410.2323	437.1112	501.2228	576.0471	583.2974	645.3904	784.7559	868.744	878.3512	947.8206	980.7185	1022.5351	1084.587	1155.7504	1223.1182	1270.326	1341.7838	1355.9724	1479.1946	1510.104	1594.0173	1635.609	3164.1258	3175.5692	3187.5847	3762.4254
OC1=NC=CN=C1	Oc1nccnc1	
InChI=1S/C4H4N2O/c7-4-3-5-1-2-6-4/h1-3H,(H,6,7)	InChI=1S/C4H4N2O/c7-4-3-5-1-2-6-4/h1-3H,(H,6,7)
