15
gdb 3457	4.44057	2.68682	2.66481	2.9028	60.15	-0.2324	-0.0017	0.2306	609.9685	0.127602	-308.524858	-308.519316	-308.518372	-308.553994	21.959	
O	 0.0024171076	-0.0041314295	 0.0470184924	-0.324615
C	-0.0145752145	 1.188523217	-0.0178845174	 0.437544
C	-1.083106069	 2.2987416114	 0.047138013	-0.130991
C	-0.0258667944	 3.007949294	 0.9599569603	-0.241914
C	 1.0249545697	 2.3272176201	 0.0184967291	-0.130991
C	 0.7295319105	 3.0224154181	-1.3296422436	-0.218822
C	-0.8432949787	 3.001169608	-1.3082727638	-0.218822
H	-2.1066746724	 2.1084619205	 0.362448268	 0.082991
H	-0.0406892723	 4.1008108402	 0.9555465713	 0.105185
H	-0.0068022632	 2.6235682013	 1.98099611	 0.117657
H	 2.0614758609	 2.1647662896	 0.3058168161	 0.082991
H	 1.1308266917	 4.0390160232	-1.354278585	 0.106681
H	 1.1460133704	 2.4751041187	-2.1790608554	 0.113213
H	-1.2677630123	 2.4424986524	-2.1462656503	 0.113213
H	-1.2724189861	 4.0065528849	-1.3216265745	 0.106681
162.8438	256.5249	423.6819	452.5275	621.5146	637.1768	778.2702	782.0274	825.2905	868.318	895.0895	904.9651	966.6082	970.6485	1005.1916	1023.2644	1040.0624	1093.5968	1124.2663	1134.633	1206.9398	1208.8458	1244.1465	1253.0477	1257.8416	1319.4235	1325.3953	1490.4842	1495.1673	1515.8911	1902.4427	3055.2998	3064.5749	3066.4254	3095.2878	3113.5617	3134.7728	3145.7495	3148.8412
O=C1C2CC1CC2	O=C1[C@H]2C[C@@H]1CC2	
InChI=1S/C6H8O/c7-6-4-1-2-5(6)3-4/h4-5H,1-3H2	InChI=1S/C6H8O/c7-6-4-1-2-5(6)3-4/h4-5H,1-3H2/t4-,5+
