13
gdb 4086	3.51209	1.88344	1.2353	3.1411	67.21	-0.2432	-0.0707	0.1725	903.6658	0.095481	-398.586535	-398.579664	-398.57872	-398.617757	25.502	
O	-0.0725345936	 1.3354894212	 0.0071241157	-0.36995
N	 0.0338886754	-0.0476609903	 0.0021391127	-0.199618
C	-1.1193616891	-0.6104287567	 0.0091423716	 0.270377
C	-2.4685491181	-0.0553006846	 0.0210222368	-0.145435
C	-3.3794820331	-1.0426667126	 0.0248015551	-0.081129
C	-2.7550341706	-2.4117041891	 0.0159078713	-0.376684
C	-1.244156543	-2.115132584	 0.0056750124	 0.341765
O	-0.3566785755	-2.9263551225	-0.0039601767	-0.297179
H	 0.84974958	 1.617896478	 0.0010484127	 0.317845
H	-2.6733170017	 1.0054879241	 0.0257681386	 0.129786
H	-4.4524941697	-0.8905351919	 0.0332346976	 0.117268
H	-3.0166524399	-3.014430147	 0.8941378064	 0.146465
H	-3.029708141	-3.0090734746	-0.8619893243	 0.146489
99.7588	208.7202	209.0803	306.92	368.5655	455.2253	528.6465	578.074	607.0541	672.5659	742.3591	771.9328	826.8526	959.9094	968.3873	976.4357	993.807	1083.1038	1128.7693	1149.5097	1246.8688	1278.8043	1364.2658	1413.8458	1439.5471	1634.6181	1693.1267	1847.9672	3038.3444	3069.0766	3201.7422	3247.7499	3799.8994
ON=C1C=CCC1=O	ON=C1C=CCC1=O	
InChI=1S/C5H5NO2/c7-5-3-1-2-4(5)6-8/h1-2,8H,3H2	InChI=1S/C5H5NO2/c7-5-3-1-2-4(5)6-8/h1-2,8H,3H2
