13
gdb 1047	7.77972	2.09934	1.67563	1.8321	56.04	-0.1999	0.0319	0.2318	716.9014	0.103522	-340.663929	-340.657502	-340.656558	-340.694315	22.842	
C	 0.0217908449	 1.4101583736	-0.0510341489	-0.319314
N	-0.0419587961	-0.0287283124	 0.1479658059	-0.383391
C	-1.2524451017	-0.6490515368	 0.0605043844	 0.502076
N	-2.4351944126	-0.1092023324	 0.0773283211	-0.354162
C	-3.2934178498	-1.2080039301	 0.0312296924	-0.105581
C	-2.5785877234	-2.3487405534	-0.0214217638	-0.057252
O	-1.2371676422	-2.0016358191	-0.0034428975	-0.203112
H	 1.0255221303	 1.7563532894	 0.2043325912	 0.125505
H	-0.2136920782	 1.7128861679	-1.0804463126	 0.1252
H	-0.6983352451	 1.8913174727	 0.6132249211	 0.162084
H	 0.7298916303	-0.5724392169	-0.2057094951	 0.252922
H	-4.3649689525	-1.0844354383	 0.0348768405	 0.117666
H	-2.796945944	-3.4000723343	-0.0754643887	 0.13736
113.5766	137.6537	215.0848	309.8458	434.0188	522.5042	611.9007	689.049	745.3442	760.7083	860.8227	927.2592	957.8239	1073.8345	1098.8547	1129.3354	1155.6906	1167.8483	1204.1077	1264.379	1364.7758	1454.6832	1484.8462	1508.1973	1536.6335	1587.4481	1670.0981	3012.3265	3100.8102	3144.4831	3260.1349	3309.1586	3627.6769
CNC1=NC=CO1	CNc1ncco1	
InChI=1S/C4H6N2O/c1-5-4-6-2-3-7-4/h2-3H,1H3,(H,5,6)	InChI=1S/C4H6N2O/c1-5-4-6-2-3-7-4/h2-3H,1H3,(H,5,6)
