13
gdb 4271	4.2453	1.89305	1.31069	4.9928	65.93	-0.213	-0.0226	0.1903	860.9396	0.097986	-394.812844	-394.806214	-394.80527	-394.84355	25.245	
N	 0.0915345861	 1.3652411408	 0.1851199042	-0.573477
C	-0.0623525662	 0.0054845907	 0.065952561	 0.431587
C	-1.2062709989	-0.7042202209	 0.0310496995	-0.254306
C	-1.164621968	-2.1536936723	-0.0076928532	 0.33747
N	-2.2233045114	-2.8702273589	-0.0324785292	-0.536763
N	 0.1381761833	-2.7375442629	-0.0248702681	-0.305197
C	 1.1463615268	-1.9777072371	-0.0032629879	 0.121755
O	 1.1606691998	-0.6116704599	 0.043233353	-0.221436
H	 0.9466259096	 1.7304136212	-0.20889363	 0.264931
H	-0.7258326153	 1.9097293358	-0.0443193257	 0.26872
H	-2.1666246418	-0.2062348092	 0.0392897343	 0.107221
H	-1.9511535637	-3.8544911586	-0.0620813993	 0.214976
H	 2.1652135397	-2.3535971087	-0.0191765686	 0.144519
130.0529	185.0633	302.9687	356.8985	433.4629	461.8119	534.9068	559.194	580.4443	679.4102	737.8541	800.0834	843.3996	901.4231	905.0429	929.8373	961.0238	1065.0431	1124.6574	1171.3844	1276.1936	1330.1039	1416.8469	1430.9303	1625.4356	1673.8471	1702.766	1752.8327	3188.9737	3222.3302	3466.696	3574.7826	3685.3053
NC1=CC(=N)N=CO1	N[C@@H]1C=C([NH])N=CO1	
InChI=1S/C4H5N3O/c5-3-1-4(6)8-2-7-3/h1-2,5H,6H2	InChI=1S/C4H6N3O/c5-3-1-4(6)8-2-7-3/h1-2,4-5H,6H2/t4-/m0/s1
