9
gdb 4221	6.21167	2.90875	1.98107	3.3481	46.06	-0.2572	-0.0899	0.1673	559.2432	0.056396	-379.527167	-379.522386	-379.521442	-379.555854	17.148	
F	-0.0030443152	 0.0848188788	 0.0037736904	-0.041231
C	-0.0289367158	 1.3977124501	 0.0106263762	 0.401247
N	-1.2299848649	 1.955185625	 0.0295752848	-0.274326
C	-1.1998991041	 3.2817894286	 0.0360905426	 0.004447
C	 0.0163541272	 3.9652502114	 0.0234483564	 0.01263
N	 1.1762827306	 3.313284446	 0.0046333412	-0.152588
N	 1.1599792156	 1.9844624245	-0.00204882	-0.236643
H	-2.152966531	 3.8041606966	 0.0514935206	 0.145328
H	 0.0732680076	 5.0478485589	 0.0283205378	 0.141135
187.5816	404.3294	471.747	561.7143	601.8844	650.5134	827.2948	891.1293	897.6316	1010.0924	1036.6692	1091.8579	1143.3593	1190.7911	1350.992	1419.3651	1475.9337	1573.5851	1593.3076	3168.9881	3206.098
FC1=NC=CN=N1	Fc1nccnn1	
InChI=1S/C3H2FN3/c4-3-5-1-2-6-7-3/h1-2H	InChI=1S/C3H2FN3/c4-3-5-1-2-6-7-3/h1-2H
