16
gdb 3474	4.55164	2.94482	2.6567	1.7442	63.92	-0.2307	0.1005	0.3312	615.8598	0.138272	-288.579114	-288.573228	-288.572284	-288.608362	23.342	
C	-0.1102797499	 1.527613897	-0.0472343192	-0.531092
C	 0.0780626216	 0.0518862448	 0.0306718461	 0.362829
C	 0.6635484023	-0.9724748486	-0.8682416493	-0.078316
C	 1.409731526	-1.6535818543	 0.2748343798	-0.238626
C	 0.3637571792	-0.9819958548	 1.204077532	-0.122914
C	-0.9449018675	-1.6455219672	 0.7533389853	-0.146501
N	-0.8228041718	-0.9703185676	-0.5798780446	-0.185441
H	 0.8070444833	 2.0612172803	 0.2253399159	 0.122151
H	-0.3835707035	 1.8140601641	-1.0675855087	 0.135755
H	-0.9085446179	 1.8664257682	 0.622885069	 0.124591
H	 0.9376789513	-0.8940585754	-1.9125272579	 0.093618
H	 1.4764860661	-2.7471563848	 0.2953385045	 0.092654
H	 2.4058781178	-1.2201746034	 0.397514761	 0.103825
H	 0.5925203031	-0.7680218577	 2.2468521149	 0.070379
H	-0.9882413081	-2.741295101	 0.7255931433	 0.092306
H	-1.833867652	-1.2543915295	 1.2551682178	 0.104782
203.3585	223.1332	281.0819	435.2985	479.4938	612.5642	703.2555	734.4622	821.8941	825.3474	894.4347	927.0435	958.1285	974.0113	991.0123	1020.9116	1058.5536	1087.7279	1098.088	1124.4657	1147.9602	1176.0444	1193.4054	1231.3176	1253.3746	1285.607	1311.5983	1400.984	1448.2621	1480.7105	1491.6704	1492.8841	1515.8698	3025.7932	3027.4982	3039.167	3087.0426	3096.5689	3101.1542	3106.6366	3127.9467	3198.5612
CC12C3CC1CN23	C[C@@]12[C@H]3C[C@@H]1CN23	
InChI=1S/C6H9N/c1-6-4-2-5(6)7(6)3-4/h4-5H,2-3H2,1H3	InChI=1S/C6H9N/c1-6-4-2-5(6)7(6)3-4/h4-5H,2-3H2,1H3/t4-,5-,6+,7?/m1/s1
