13
gdb 981	3.93123	3.24201	1.79361	0.4919	55.52	-0.1754	0.0638	0.2392	662.2233	0.103906	-340.65899	-340.652523	-340.651579	-340.688806	24.818	
N	-0.2177716716	 1.4284220617	-0.0455379219	-0.627725
C	-0.0128602313	 0.0148323155	-0.0122611374	 0.074713
C	-1.0810144016	-0.8470445675	-0.0924783136	 0.382296
O	-2.3990541627	-0.5779484905	-0.2066072236	-0.441094
N	-0.6271123986	-2.1288931393	-0.0395564386	-0.304225
C	 0.756173488	-2.1120366659	 0.0765546772	-0.095289
C	 1.1604808006	-0.8022294638	 0.0956087135	-0.22574
H	 0.2659158652	 1.8613283371	-0.8267927191	 0.23652
H	 0.1284264632	 1.8796420631	 0.7960561044	 0.236525
H	-2.4460153664	 0.3901464161	-0.2219122493	 0.302652
H	-1.2124200677	-2.9441756449	-0.0796857073	 0.264627
H	 1.3125226586	-3.0323536713	 0.1339532056	 0.112872
H	 2.1803865942	-0.4568258303	 0.1774798101	 0.083869
224.1525	243.8817	266.3436	286.9136	417.1111	470.2137	513.0472	625.1784	633.6047	658.0473	701.9336	753.9523	805.6063	859.9758	914.1403	1077.8488	1080.3112	1169.372	1211.2778	1227.4825	1279.9014	1394.9163	1402.2125	1525.8008	1573.1743	1635.026	1690.0676	3239.7172	3277.9064	3483.2084	3543.6111	3691.0625	3732.4189
NC1=C(O)NC=C1	Nc1c(O)[nH]cc1	
InChI=1S/C4H6N2O/c5-3-1-2-6-4(3)7/h1-2,6-7H,5H2	InChI=1S/C4H6N2O/c5-3-1-2-6-4(3)7/h1-2,6-7H,5H2
