15
gdb 4106	3.36099	1.80802	1.24684	1.0771	68.56	-0.2288	-0.0349	0.194	935.1055	0.11893	-399.768959	-399.761388	-399.760444	-399.801327	28.038	
O	-0.050319936	 1.3156312378	-0.0449993786	-0.391256
N	 0.0261703667	-0.0851940608	-0.0065439626	-0.252622
C	-1.1300978561	-0.6277313105	 0.0274114962	 0.355176
C	-2.4703475035	-0.0565450355	 0.0438370306	-0.150381
C	-3.3815661382	-1.0405450916	 0.0238330811	-0.06642
C	-2.7627423291	-2.4142422254	-0.0133432864	-0.281472
C	-1.2383104054	-2.1517271936	 0.0069515075	 0.055133
O	-0.6415130189	-2.7159355122	-1.1490683508	-0.433009
H	 0.8776982102	 1.572592853	-0.0453837588	 0.307033
H	-2.6634828033	 1.0065232552	 0.0579037123	 0.123503
H	-4.4556784871	-0.890210825	 0.0260154782	 0.109687
H	-3.0939139675	-3.0333962658	 0.8280211937	 0.115942
H	-3.024189926	-2.9560865434	-0.9295760451	 0.136127
H	-0.7791897748	-2.5688597824	 0.9149310393	 0.084026
H	 0.2108867489	-2.2771018999	-1.2568978265	 0.288533
42.3159	169.1317	222.4892	290.5916	324.7	375.0683	406.922	463.6839	526.9934	618.9	729.0862	767.8922	800.1875	853.7358	914.4388	961.561	983.6047	994.0153	1024.1506	1092.7533	1121.2016	1195.4531	1229.589	1255.5036	1309.1193	1348.3194	1364.1085	1398.4637	1418.449	1469.1522	1642.9936	1729.8333	2991.7566	3040.5798	3074.5938	3195.3349	3245.9061	3790.4364	3821.2126
ON=C1C=CCC1O	ON=C1C=CC[C@H]1O	
InChI=1S/C5H7NO2/c7-5-3-1-2-4(5)6-8/h1-2,5,7-8H,3H2	InChI=1S/C5H7NO2/c7-5-3-1-2-4(5)6-8/h1-2,5,7-8H,3H2/t5-/m1/s1
