17
gdb 1487	4.39281	1.5029	1.19739	3.2661	61.83	-0.2412	-0.0176	0.2235	995.3581	0.144979	-346.857051	-346.848202	-346.847258	-346.891212	29.678	
C	 0.0256666479	 1.3967691286	-0.1195901317	-0.239198
O	-0.0276999409	 0.0079113436	 0.1186019519	-0.245705
C	-1.3235629887	-0.569447076	 0.0135255261	 0.1256
C	-1.7615114696	-0.75045594	-1.4418145276	-0.400134
C	-1.2479078352	-1.911772499	 0.7538351038	-0.280304
C	-0.9954932553	-1.7505860529	 2.2374202196	 0.151898
O	-1.5824784786	-2.3591723865	 3.096246705	-0.244787
H	 1.0509921863	 1.716181994	 0.0820405787	 0.13155
H	-0.2213513998	 1.6575206251	-1.158315184	 0.110441
H	-0.6551692535	 1.9487264874	 0.5467468026	 0.108022
H	-2.0499930887	 0.0854050992	 0.5258256002	 0.073651
H	-1.8044824709	 0.2071671881	-1.9681570994	 0.120475
H	-1.0599558617	-1.4031756364	-1.970766575	 0.126383
H	-2.758297999	-1.1996507832	-1.4885751399	 0.122278
H	-2.1592339868	-2.4987996405	 0.6138217606	 0.118447
H	-0.4058657024	-2.475416892	 0.3277801918	 0.131318
H	-0.2057598832	-1.0109216295	 2.4893836874	 0.090065
53.1619	77.0493	88.8413	171.5681	205.5768	244.5036	283.518	364.5307	433.5115	468.7654	539.5959	789.5755	822.6951	935.5858	957.0649	1010.3767	1109.5161	1115.3824	1133.8909	1169.7823	1183.0891	1208.0859	1262.071	1293.7016	1377.8165	1381.4236	1403.7775	1420.0042	1444.2853	1478.1652	1482.0487	1491.7137	1501.1654	1511.8915	1830.0721	2909.7762	2950.9814	2981.817	3024.0613	3032.217	3041.4033	3107.6769	3113.9738	3115.7553	3117.0977
COC(C)CC=O	CO[C@@H](C)CC=O	
InChI=1S/C5H10O2/c1-5(7-2)3-4-6/h4-5H,3H2,1-2H3	InChI=1S/C5H10O2/c1-5(7-2)3-4-6/h4-5H,3H2,1-2H3/t5-/m0/s1
