14
gdb 398	5.65815	3.06401	2.39381	0.7654	59.61	-0.24	0.0571	0.2972	582.3195	0.118255	-233.255259	-233.2487	-233.247756	-233.284774	24.638	
C	-0.0333215906	 1.5095986406	 0.0044678337	-0.455691
C	 0.0076471221	-0.0115406183	 0.0025013757	 0.185076
C	 1.3455677023	-0.6978502185	-0.2344265144	-0.286768
C	 0.7362752626	-0.7160589193	 1.1382805503	-0.286773
C	-1.167638917	-0.6516202755	-0.5277413733	 0.278002
C	-2.1602411397	-1.1641168621	-0.9748808684	-0.477123
H	 0.892653475	 1.917869051	 0.4211621977	 0.112602
H	-0.1514453456	 1.8987431651	-1.0115833086	 0.127965
H	-0.8701014063	 1.8773132974	 0.6064073627	 0.12797
H	 1.3429614218	-1.6168029619	-0.8080379138	 0.125866
H	 2.2007847337	-0.0544302493	-0.4118030466	 0.116223
H	 1.1722120988	-0.085212754	 1.905642475	 0.116229
H	 0.3182271879	-1.6474336545	 1.5006147378	 0.125865
H	-3.033244285	-1.6222598108	-1.3684188279	 0.190557
172.0706	198.2794	235.019	336.1659	336.5985	535.1092	543.7745	582.6215	641.2936	656.2226	788.5014	841.7467	921.2082	943.5544	954.802	1046.2381	1075.7266	1078.1832	1118.4505	1194.2684	1291.1466	1324.1028	1416.0582	1465.5755	1487.0084	1497.7467	1503.0297	2233.3385	3034.8507	3106.4224	3108.3762	3136.5865	3140.9517	3222.0172	3236.3713	3504.5795
CC1(CC1)C#C	CC1(CC1)C#C	
InChI=1S/C6H8/c1-3-6(2)4-5-6/h1H,4-5H2,2H3	InChI=1S/C6H8/c1-3-6(2)4-5-6/h1H,4-5H2,2H3
