13
gdb 944	5.80255	2.73605	1.86194	1.8847	63.35	-0.2112	-0.0104	0.2008	649.0553	0.105483	-303.566436	-303.560858	-303.559914	-303.595433	21.975	
N	-0.0248161335	 1.3788756231	 0.1732271292	-0.564017
C	 0.0235055635	 0.0010186191	 0.0669571368	 0.389892
N	-1.1563742614	-0.6302034638	 0.046940474	-0.325467
C	-1.1471200424	-1.9652576358	 0.0027581172	 0.005102
C	 0.0061996727	-2.7374024969	-0.0333730322	-0.14489
C	 1.2313317593	-2.0677927483	-0.0202166726	-0.06264
C	 1.2514652431	-0.685733118	 0.0329750629	-0.181302
H	 0.7584351222	 1.8928177504	-0.1978771529	 0.248528
H	-0.9263127028	 1.7694434471	-0.0576634245	 0.253502
H	-2.1259352134	-2.4403302666	-0.0091763216	 0.102186
H	-0.0510812425	-3.8182513717	-0.0742686736	 0.09232
H	 2.1639137053	-2.6225074655	-0.0495454652	 0.101247
H	 2.1864555599	-0.1357833131	 0.0538866725	 0.085541
206.2939	370.474	407.3052	420.366	504.241	557.3211	586.2849	638.4139	764.0915	797.7932	860.5034	875.0226	979.6911	992.0922	999.0654	1058.9941	1069.7848	1147.2159	1174.8442	1322.1425	1343.8822	1351.4715	1477.9977	1518.5691	1613.1628	1627.4353	1652.4097	3147.5108	3171.3051	3187.6307	3208.1294	3577.6867	3692.7671
NC1=NC=CC=C1	Nc1ncccc1	
InChI=1S/C5H6N2/c6-5-3-1-2-4-7-5/h1-4H,(H2,6,7)	InChI=1S/C5H6N2/c6-5-3-1-2-4-7-5/h1-4H,(H2,6,7)
