16
gdb 1530	6.51858	1.42547	1.3288	1.5408	57.64	-0.2248	0.0147	0.2395	947.1382	0.135676	-362.933001	-362.924518	-362.923574	-362.966437	28.321	
C	 0.5079461135	 0.7778147332	 0.4096127261	-0.318198
N	-0.4002182418	 0.3810708889	-0.6652368903	-0.259591
C	 0.2178369462	-0.4669079351	-1.6608347064	-0.28624
C	 0.5057480565	-1.8943605264	-1.1932928866	 0.431895
O	 0.0428735301	-2.3983401988	-0.2001025217	-0.363001
O	 1.3164727001	-2.5355139072	-2.0553776943	-0.226358
C	 1.6003414643	-3.9046321581	-1.7352905037	-0.238728
H	 0.9727854092	-0.0648171943	 0.9452170855	 0.112197
H	 1.306594444	 1.4034439362	-0.0052162899	 0.118153
H	-0.0410092411	 1.3828289872	 1.1367631237	 0.120722
H	-1.1840919074	-0.1220217186	-0.2611632274	 0.22802
H	-0.4338220094	-0.549147405	-2.5413694148	 0.132437
H	 1.149999453	-0.014936213	-2.0160243288	 0.131935
H	 2.0941302753	-3.9775419355	-0.7631156911	 0.141649
H	 0.6793268233	-4.4923529636	-1.7055975835	 0.140786
H	 2.2581637843	-4.2650255801	-2.5261021668	 0.134322
53.1768	103.1693	120.9565	168.6325	179.8513	245.6081	315.9601	367.6543	473.6796	579.8688	684.6006	781.1488	891.4373	955.3491	991.003	1028.991	1145.2814	1157.7259	1178.4887	1200.4509	1208.5132	1230.5217	1309.5592	1368.53	1446.3524	1463.1551	1472.4236	1482.3525	1488.9776	1497.3806	1503.7981	1527.081	1816.4791	2982.2566	3023.9345	3052.4715	3061.1701	3082.0764	3105.6562	3127.2495	3159.7588	3522.278
CNCC(=O)OC	CNCC(=O)OC	
InChI=1S/C4H9NO2/c1-5-3-4(6)7-2/h5H,3H2,1-2H3	InChI=1S/C4H9NO2/c1-5-3-4(6)7-2/h5H,3H2,1-2H3
