16
gdb 4839	4.88091	1.33224	1.12173	2.5983	67.63	-0.1932	0.0457	0.2389	1062.0963	0.131327	-379.964251	-379.956206	-379.955261	-379.99732	29.184	
C	 0.0555799684	 1.3817258563	-0.4779936381	-0.372344
C	-0.0877908542	 0.0656398696	 0.3071340275	-0.289796
C	-1.4605438124	-0.5223224616	 0.2522266904	 0.341889
N	-2.3207555331	-0.5833770908	 1.2385779787	-0.289614
C	-3.461471343	-1.182053447	 0.7311492862	-0.233162
C	-3.2693622782	-1.4815284043	-0.5892231969	 0.352193
O	-4.0090981475	-2.0593690144	-1.5673983382	-0.436878
N	-2.0003971304	-1.0630794618	-0.8974287368	-0.335024
H	 1.0727660918	 1.776076672	-0.3920810776	 0.115896
H	-0.1572283667	 1.2409052998	-1.5433117576	 0.106413
H	-0.6388993318	 2.1360551411	-0.0971968649	 0.132899
H	 0.6496767759	-0.6605559742	-0.060806379	 0.101741
H	 0.1341042026	 0.2351977522	 1.3638340971	 0.133788
H	-4.3345957947	-1.3599371034	 1.3397749705	 0.095121
H	-4.8635191758	-2.301653605	-1.1973388836	 0.310554
H	-1.5658657508	-1.1560286884	-1.8003345376	 0.266325
34.9821	130.3387	196.5401	232.6513	274.8281	316.025	415.7307	452.6585	484.6406	614.8463	668.2382	712.7623	736.7538	768.5962	786.9678	958.0556	1003.4056	1042.3597	1071.8722	1084.3977	1149.9922	1177.6747	1235.4323	1276.679	1301.2822	1352.4607	1407.9157	1438.9651	1475.6905	1495.88	1501.7312	1509.8822	1570.7591	1641.0831	3016.9991	3034.3749	3091.1187	3109.6653	3118.308	3246.2483	3663.4913	3843.6709
CCC1=NC=C(O)N1	CCc1ncc(O)[nH]1	
InChI=1S/C5H8N2O/c1-2-4-6-3-5(8)7-4/h3,8H,2H2,1H3,(H,6,7)	InChI=1S/C5H8N2O/c1-2-4-6-3-5(8)7-4/h3,8H,2H2,1H3,(H,6,7)
