13
gdb 2195	3.5504	2.78274	1.94873	4.0868	50.32	-0.2346	-0.0261	0.2084	665.1631	0.100182	-381.582831	-381.575897	-381.574953	-381.613596	25.294	
O	-0.1667968506	 1.3998551683	-0.0776126246	-0.443075
C	 0.0081958138	-0.0022814132	 0.0248538383	 0.057045
C	 0.1882801541	-0.4754832084	 1.4931410826	-0.374112
C	-1.3549295695	-0.5763981123	 1.5660944572	 0.346844
O	-2.152842238	-0.5055580662	 2.4503513341	-0.28296
C	-1.4385733353	-0.5995017056	 0.0127039695	 0.066737
O	-2.4405632633	 0.0574818095	-0.6823807428	-0.420684
H	 0.6532822947	 1.839017398	 0.1669039828	 0.29557
H	 0.7149388436	-0.3836765475	-0.7188305807	 0.079021
H	 0.6711551618	-1.4545460835	 1.5749838985	 0.132345
H	 0.6617033683	 0.2223357747	 2.1870833846	 0.126842
H	-1.4141197527	-1.6441303948	-0.3212891551	 0.116466
H	-2.3119200468	 1.0013252209	-0.5227823643	 0.299961
99.6094	209.452	233.4502	262.7039	390.3508	396.2888	424.2924	548.4619	590.613	717.0592	748.7719	855.6324	868.0749	966.588	1034.9688	1044.3939	1091.8872	1172.2517	1177.0808	1201.6388	1243.9999	1281.7213	1337.5249	1397.5301	1425.5474	1443.2921	1904.2832	3045.6714	3054.143	3067.5577	3126.2638	3782.8991	3830.9871
OC1CC(=O)C1O	O[C@H]1CC(=O)[C@H]1O	
InChI=1S/C4H6O3/c5-2-1-3(6)4(2)7/h2,4-5,7H,1H2	InChI=1S/C4H6O3/c5-2-1-3(6)4(2)7/h2,4-5,7H,1H2/t2-,4-/m0/s1
