15
gdb 4850	4.9549	1.41167	1.1337	2.3087	64.34	-0.1731	0.0607	0.2338	1017.4576	0.120106	-396.004589	-395.996546	-395.995602	-396.037461	28.826	
C	 0.1485948783	 1.3055650303	-0.2263922887	-0.333178
N	-0.3422879102	 0.0368939337	 0.3066635843	-0.374015
C	 0.5031685994	-0.7003784736	 1.1285631135	 0.412188
N	 0.7369500265	-1.9820437809	 1.0340867752	-0.328366
C	 1.549724877	-2.298650462	 2.1219242091	-0.233265
C	 1.8047285011	-1.1741349595	 2.845820588	 0.351749
O	 2.5244865807	-0.8716571698	 3.9566806006	-0.440672
N	 1.140133731	-0.1420684885	 2.2125196731	-0.343953
H	 1.0998235909	 1.2204676505	-0.7735596142	 0.119633
H	-0.6072289968	 1.7192918278	-0.8980840363	 0.13184
H	 0.2864348219	 2.0298778051	 0.5833536709	 0.120206
H	-0.6872067096	-0.579575441	-0.4182257975	 0.247401
H	 1.9036025578	-3.303234061	 2.2927011431	 0.094022
H	 2.9399425855	-1.6791228547	 4.2742515604	 0.30856
H	 1.0605569163	 0.7972369038	 2.5621294684	 0.26785
44.1771	145.9585	188.6167	209.1634	253.5475	353.9652	392.2048	429.2883	486.2738	614.2328	646.506	698.6061	740.0704	755.6303	774.7636	988.8536	1044.6386	1071.736	1131.5916	1149.1583	1164.3396	1189.417	1265.8233	1289.8623	1420.0987	1456.5752	1484.6595	1492.7227	1510.9914	1521.4424	1634.2072	1647.4434	2987.1965	3069.462	3118.4495	3249.4205	3577.738	3675.0656	3846.3356
CNC1=NC=C(O)N1	CNc1ncc(O)[nH]1	
InChI=1S/C4H7N3O/c1-5-4-6-2-3(8)7-4/h2,8H,1H3,(H2,5,6,7)	InChI=1S/C4H7N3O/c1-5-4-6-2-3(8)7-4/h2,8H,1H3,(H2,5,6,7)
