13
gdb 1843	6.59864	2.09614	1.61117	5.8308	58.17	-0.2205	-0.0004	0.2201	720.0313	0.103848	-340.687222	-340.680857	-340.679913	-340.717088	24.108	
N	 0.0683601075	 1.3507994674	-0.1243238644	-0.581807
C	-0.0350807531	-0.0130208136	-0.0340182656	 0.370215
C	-1.1239149334	-0.8058314309	-0.0050710219	-0.344121
C	-0.700695563	-2.2187796151	 0.0156418269	 0.42691
O	-1.3739970866	-3.2262510538	-0.0399320599	-0.395125
N	 0.6937834745	-2.1962213621	 0.1260106166	-0.345091
C	 1.2213327726	-0.8607574204	-0.0318442683	-0.2367
H	 0.9203646959	 1.7701497663	 0.2148659655	 0.255852
H	-0.7571502445	 1.8854607975	 0.09811126	 0.262112
H	-2.1622437681	-0.5096967987	-0.0066142692	 0.100073
H	 1.2150837016	-3.0103724222	-0.1549592668	 0.24566
H	 1.7770862417	-0.7241897614	-0.9712559976	 0.127457
H	 1.8933486849	-0.5747437729	 0.7913209848	 0.114565
169.7844	213.9392	326.0816	350.3153	427.2218	474.4067	511.9676	553.6987	600.4656	710.6041	743.9251	833.7969	894.2177	939.324	1016.0944	1080.9359	1102.0304	1194.3292	1210.5104	1243.6271	1334.273	1389.6588	1429.8249	1504.2296	1645.4012	1700.0095	1819.3389	2989.4434	3013.6213	3246.3541	3578.2236	3653.8956	3682.6037
NC1=CC(=O)NC1	NC1=CC(=O)NC1	
InChI=1S/C4H6N2O/c5-3-1-4(7)6-2-3/h1H,2,5H2,(H,6,7)	InChI=1S/C4H6N2O/c5-3-1-4(7)6-2-3/h1H,2,5H2,(H,6,7)
