9
gdb 3945	7.61374	2.36968	1.80721	2.6402	42.23	-0.2533	0.0135	0.2668	613.2219	0.055405	-412.494644	-412.489287	-412.488342	-412.523776	19.522	
O	-0.1395365893	 1.2677996573	 0.0104025367	-0.380497
C	 0.0562089105	-0.0363276327	 0.0024089831	 0.512564
N	 1.1760012717	-0.6609987294	-0.007430919	-0.254324
O	 0.767226587	-2.0382976308	-0.0122744	-0.245333
C	-0.5934552862	-2.09251795	-0.0045744911	 0.532374
N	-1.3654336124	-3.0752116849	-0.0052276097	-0.566859
O	-1.0545212136	-0.7869064203	 0.0049741521	-0.185483
H	 0.7241479949	 1.7039799139	 0.0076352266	 0.337061
H	-0.8479667925	-3.9503474131	-0.0128677088	 0.250497
170.784	322.5167	358.5335	447.9891	533.9398	674.4417	685.6209	741.1355	774.6946	782.8657	910.9941	954.1646	993.5882	1069.1641	1225.0697	1254.2012	1527.6229	1724.4344	1830.0336	3551.0371	3787.049
OC1=NOC(=N)O1	OC1=NO[C@H]([NH])O1	
InChI=1S/C2H2N2O3/c3-1-6-2(5)4-7-1/h3H,(H,4,5)	InChI=1S/C2H3N2O3/c3-1-6-2(5)4-7-1/h1,3H,(H,4,5)/t1-/m1/s1
