21
gdb 1692	4.18316	1.50735	1.39462	1.399	70.52	-0.2591	0.0702	0.3293	1003.9967	0.192703	-312.130526	-312.121063	-312.120119	-312.164135	34.351	
C	 0.0724113609	 1.5710784593	 0.065855202	-0.395503
C	-0.0292972284	 0.0433187283	 0.0250526801	-0.164444
C	-1.4616806022	-0.5144065502	-0.0812421895	 0.045651
C	-2.169439811	-0.0475236934	-1.3624999868	-0.415943
C	-1.4325726872	-2.0572042382	 0.045018102	 0.140232
C	-2.8109792409	-2.696347698	 0.2247014281	-0.41955
O	-0.7226328021	-2.6664850851	-1.0343183151	-0.437983
H	 1.1078919508	 1.8862739119	 0.2293744918	 0.111827
H	-0.2634242562	 2.033255114	-0.8675335246	 0.115573
H	-0.5323583433	 1.9891955783	 0.8792499979	 0.109247
H	 0.5604578146	-0.3520466073	-0.8101994932	 0.107822
H	 0.4295772246	-0.3640838096	 0.9354152115	 0.088446
H	-2.0353491045	-0.1415384491	 0.7805964456	 0.064048
H	-3.1879165733	-0.4407635381	-1.4378747538	 0.111383
H	-2.2454563443	 1.0420428576	-1.3984293081	 0.120938
H	-1.6147709828	-0.3625102244	-2.2543069128	 0.110801
H	-0.8285128328	-2.2993113102	 0.9286115206	 0.081728
H	-3.4505191771	-2.5289604285	-0.6495187743	 0.109407
H	-2.706170769	-3.776289836	 0.3606945325	 0.123039
H	-3.3277478302	-2.2854145807	 1.098207842	 0.114917
H	-1.2823998558	-2.6194211106	-1.8164605958	 0.278362
73.2876	81.0012	192.9106	205.976	237.0981	245.7894	286.2593	301.5242	321.4177	340.1271	437.0299	490.9311	612.0888	757.9831	790.1807	857.7156	927.9766	961.815	976.4353	1019.7647	1036.1369	1054.1969	1097.1523	1114.2967	1181.2153	1196.6635	1279.8516	1290.2252	1321.9121	1347.2356	1375.4711	1383.3735	1403.0039	1409.7723	1414.096	1425.837	1486.1017	1490.9186	1494.1609	1500.6193	1506.2811	1508.6901	1517.5796	2994.1353	3018.8742	3027.9713	3029.7037	3031.9992	3034.6049	3063.021	3094.1954	3095.8026	3100.1689	3103.5835	3115.1088	3115.9617	3809.7016
CCC(C)C(C)O	CC[C@@H](C)[C@@H](C)O	
InChI=1S/C6H14O/c1-4-5(2)6(3)7/h5-7H,4H2,1-3H3	InChI=1S/C6H14O/c1-4-5(2)6(3)7/h5-7H,4H2,1-3H3/t5-,6-/m1/s1
