13
gdb 4590	5.93603	1.58713	1.25325	1.5175	64.44	-0.2077	-0.0322	0.1755	891.1245	0.097945	-394.840949	-394.834286	-394.833342	-394.871441	25.711	
N	 0.0124566977	 1.3619419486	-0.0671263107	-0.557766
C	-0.0117129175	-0.011633963	-0.0557142567	 0.423547
N	-1.2192440704	-0.5975759562	 0.0000845443	-0.301763
C	-1.2377760278	-1.9241801509	-0.04979311	-0.041824
C	-0.0745942693	-2.6868819374	-0.152335592	 0.291788
O	-0.1695524235	-4.0473046502	-0.2008537801	-0.443331
C	 1.1192535267	-1.9733839085	-0.1860309121	-0.108047
N	 1.1670125337	-0.6443130013	-0.1366876138	-0.298605
H	 0.8918396883	 1.7842496477	 0.1820810401	 0.258264
H	-0.818151449	 1.8136676656	 0.2791030149	 0.258952
H	-2.2063628895	-2.4172335316	-0.0046900891	 0.120586
H	 0.7141060327	-4.4240156015	-0.2700851986	 0.299419
H	 2.0754318179	-2.4952968511	-0.2505608661	 0.098778
133.0279	295.294	327.8091	385.1315	421.6068	431.5892	467.6559	477.4446	518.0068	545.7277	662.3396	799.3371	822.9362	892.7075	940.1738	976.9267	1043.8255	1072.1063	1193.8682	1283.6539	1308.9722	1325.7396	1390.3112	1466.6761	1505.1234	1605.852	1625.5746	1661.7585	3112.8897	3158.5725	3599.7087	3723.192	3817.2363
NC1=NC=C(O)C=N1	Nc1ncc(O)cn1	
InChI=1S/C4H5N3O/c5-4-6-1-3(8)2-7-4/h1-2,8H,(H2,5,6,7)	InChI=1S/C4H5N3O/c5-4-6-1-3(8)2-7-4/h1-2,8H,(H2,5,6,7)
