19
gdb 1568	6.80381	1.09962	1.00367	0.2392	64.19	-0.2584	0.0704	0.3288	1181.6462	0.169589	-348.053386	-348.044152	-348.043208	-348.087167	32.434	
C	 0.0069208002	 1.5464270487	 0.0961899988	-0.381266
C	-0.0085025181	 0.0203590391	-0.0147945033	-0.184832
C	 0.7144498444	-0.5024421962	-1.2625553406	 0.131527
O	 2.0710665576	-0.052380154	-1.3076978814	-0.430172
C	 0.6273481632	-2.0266890734	-1.3872401115	-0.187835
C	 1.2776963661	-2.5628480605	-2.6560179786	-0.076014
O	 1.1553110187	-3.9787531502	-2.6414163695	-0.424165
H	 1.0325637126	 1.9236999528	 0.0728218301	 0.126637
H	-0.5334864458	 2.0066519214	-0.7384907536	 0.113497
H	-0.4647813548	 1.8818656682	 1.0246282339	 0.108641
H	 0.4631852632	-0.4257664846	 0.8733651094	 0.085026
H	-1.0416889225	-0.348393783	-0.0257525018	 0.097473
H	 0.2561268439	-0.0448732953	-2.1502948645	 0.08419
H	 2.5234020868	-0.426741111	-0.5426658486	 0.275992
H	 1.1094733464	-2.4962437039	-0.5182009053	 0.09314
H	-0.4231503832	-2.3399403869	-1.3661082178	 0.104796
H	 0.7779258107	-2.1288899349	-3.538068745	 0.082105
H	 2.3294079119	-2.246591603	-2.6900846933	 0.09664
H	 1.6058124988	-4.3247188633	-3.4171511873	 0.28462
80.414	92.976	130.0729	146.8673	222.454	266.9853	285.0035	308.9625	341.6456	394.8588	471.726	562.473	777.134	800.9021	873.1778	949.6733	1005.2306	1007.3626	1054.7864	1068.1877	1098.4123	1119.5538	1142.4752	1210.0716	1240.9129	1264.3459	1301.4543	1302.1862	1352.6891	1361.7519	1391.4292	1407.3981	1421.3133	1460.5823	1476.9235	1489.08	1495.815	1509.4576	1531.1056	2963.9048	2999.866	3010.8271	3020.216	3025.2167	3037.3367	3051.268	3072.0366	3101.5392	3122.3239	3788.7142	3830.0735
CCC(O)CCO	CC[C@@H](O)CCO	
InChI=1S/C5H12O2/c1-2-5(7)3-4-6/h5-7H,2-4H2,1H3	InChI=1S/C5H12O2/c1-2-5(7)3-4-6/h5-7H,2-4H2,1H3/t5-/m1/s1
