15
gdb 3122	5.18969	2.25	1.85181	3.1528	63.08	-0.2438	-0.0175	0.2263	707.5096	0.125386	-308.504896	-308.498548	-308.497604	-308.535055	23.798	
O	-0.1405903956	 0.0079274163	 0.0738007368	-0.272803
C	-0.0108658118	 1.2054400904	-0.0377593204	 0.05636
C	 1.2697034286	 1.9119959048	 0.0064079718	 0.28458
C	 1.3655811652	 3.387346344	 0.3396073611	-0.324961
C	 1.7706986755	 2.9740435846	-1.0276733141	-0.085382
C	 3.1511374536	 2.3055598687	-1.029178049	-0.218974
C	 2.653487157	 1.2595460427	 0.0211554455	-0.298474
H	-0.8923929778	 1.868876419	-0.2064307047	 0.058482
H	 0.4148100795	 3.9070227673	 0.4136462869	 0.124699
H	 2.1068770368	 3.7018472969	 1.0705504336	 0.119952
H	 1.2367740687	 3.3203011284	-1.9044771717	 0.103587
H	 3.3978990783	 1.8452461654	-1.9874515475	 0.114746
H	 3.9816641911	 2.9516048326	-0.72762896	 0.10449
H	 3.1621517554	 1.2536292058	 0.9894834531	 0.103131
H	 2.6266705656	 0.2412033531	-0.3685220912	 0.130566
116.7079	204.9665	229.9186	337.0452	411.4975	497.3735	676.469	751.7932	783.9463	788.4499	872.8875	934.3269	938.7086	963.8858	1014.9842	1027.2071	1049.3587	1087.7776	1112.33	1143.6264	1221.0679	1232.0594	1243.3281	1276.2705	1333.7654	1379.2063	1437.2892	1480.4381	1483.6889	1506.0006	1798.3273	2845.8904	3052.3325	3063.4741	3109.175	3112.6639	3134.06	3185.792	3199.9614
O=CC12CC1CC2	O=C[C@]12C[C@H]1CC2	
InChI=1S/C6H8O/c7-4-6-2-1-5(6)3-6/h4-5H,1-3H2	InChI=1S/C6H8O/c7-4-6-2-1-5(6)3-6/h4-5H,1-3H2/t5-,6+/m1/s1
