18
gdb 394	7.30037	1.88258	1.63985	1.4336	60.24	-0.2621	0.0721	0.3342	805.7386	0.164626	-272.844804	-272.836705	-272.835761	-272.876509	28.828	
C	-0.0042606099	 1.5602121221	 0.0832661964	-0.379848
C	-0.0083761369	 0.0326608495	-0.0099421287	-0.185356
C	 0.7115513319	-0.5005672123	-1.2552026643	 0.155174
O	 2.0643855872	-0.0434558886	-1.3099293272	-0.429123
C	 0.6331234842	-2.028450177	-1.3680447377	-0.185364
C	 1.2826345421	-2.5748778943	-2.6414953667	-0.379848
H	 1.0185406346	 1.9442153099	 0.0485467493	 0.126577
H	-0.5527479518	 2.0060376401	-0.7539543331	 0.113225
H	-0.4729800785	 1.9038575248	 1.0102989087	 0.107201
H	 0.4708477237	-0.3985347551	 0.8819094077	 0.08244
H	-1.0391672317	-0.3438029143	-0.010592819	 0.09449
H	 0.2470195957	-0.0574223425	-2.1471487009	 0.082126
H	 2.521423543	-0.4070383426	-0.5425332023	 0.274368
H	 1.1154208666	-2.4691815092	-0.4825310371	 0.08244
H	-0.420448576	-2.33169939	-1.3203224243	 0.094493
H	 0.760433364	-2.2138084238	-3.5345075745	 0.113228
H	 2.3228190723	-2.2467467668	-2.713136226	 0.126575
H	 1.2613191995	-3.66864251	-2.6616029003	 0.107203
100.6492	115.6299	188.9912	210.1891	231.2745	305.2184	319.2684	391.7927	467.5587	509.5111	771.9846	777.6384	853.4622	937.5083	974.2413	1014.126	1039.5481	1064.7305	1102.7703	1126.0156	1169.0455	1255.7265	1276.3245	1304.7478	1360.1775	1373.9393	1392.7992	1405.3659	1405.655	1423.4785	1474.4549	1486.6972	1495.2014	1495.6429	1509.2407	1510.2849	2995.44	2998.6665	3021.4953	3036.1449	3037.5551	3042.7852	3055.6617	3100.741	3101.2458	3121.2944	3122.088	3788.357
CCC(O)CC	CCC(O)CC	
InChI=1S/C5H12O/c1-3-5(6)4-2/h5-6H,3-4H2,1-2H3	InChI=1S/C5H12O/c1-3-5(6)4-2/h5-6H,3-4H2,1-2H3
