16
gdb 1287	7.94292	1.05193	0.95777	4.6	57.85	-0.2448	0.0347	0.2796	1158.8734	0.135165	-362.944759	-362.935797	-362.934853	-362.979581	29.83	
N	-0.0299451326	 1.2954569865	-0.2107548969	-0.522689
C	 0.0487598852	-0.0073487987	 0.1941741472	 0.410004
O	 1.0830955968	-0.497599289	 0.6016392585	-0.35502
C	-1.2654880618	-0.7842477687	 0.1084881112	-0.317528
C	-1.0389382709	-2.2850602033	-0.0753665854	-0.151953
C	-2.3277864727	-3.0874509398	 0.0337499629	-0.076958
O	-2.0078433287	-4.4536469856	-0.1750479487	-0.419136
H	 0.781083926	 1.8799992872	-0.0912700328	 0.259594
H	-0.8961941066	 1.7212783008	-0.4885005985	 0.255605
H	-1.8069327034	-0.5986975689	 1.0473740679	 0.125669
H	-1.8944383413	-0.3771955743	-0.6928969004	 0.099366
H	-0.583257677	-2.4799855099	-1.0524318869	 0.11223
H	-0.3240392409	-2.632495808	 0.6750278107	 0.136052
H	-2.7800322375	-2.9297818879	 1.0276774747	 0.081902
H	-3.0586821369	-2.731755241	-0.7125439793	 0.077923
H	-2.8170833174	-4.9675535294	-0.1016292641	 0.284938
28.6973	77.3725	117.7696	125.4791	142.4735	261.3117	304.9701	349.0786	484.3469	528.2453	610.3286	670.4842	764.1048	851.7864	880.311	1021.0274	1059.601	1074.0315	1091.4839	1120.4918	1208.7029	1223.4207	1280.3548	1296.8504	1307.2967	1344.1084	1406.7443	1465.7936	1466.2998	1498.3963	1528.1378	1616.6285	1800.5177	2948.19	2971.8343	3011.1441	3049.0411	3057.4179	3111.8812	3602.8554	3740.5009	3831.2716
NC(=O)CCCO	NC(=O)CCCO	
InChI=1S/C4H9NO2/c5-4(7)2-1-3-6/h6H,1-3H2,(H2,5,7)	InChI=1S/C4H9NO2/c5-4(7)2-1-3-6/h6H,1-3H2,(H2,5,7)
