17
gdb 636	5.80625	2.85249	2.11206	1.0303	60.85	-0.2299	0.0898	0.3196	650.5166	0.153893	-251.731545	-251.724533	-251.723589	-251.761786	25.853	
C	-0.0404367788	 1.4243917277	-0.1493630554	-0.382081
C	 0.0687878857	-0.0798082122	 0.1047083526	 0.084629
C	 0.7645011949	-0.3843620918	 1.4322349652	-0.382081
N	-1.2772744286	-0.6600079904	 0.1262457676	-0.05579
C	-1.8590428156	-1.004710041	-1.1650422609	-0.22246
C	-1.3859047844	-2.0678914293	-0.2353674085	-0.22246
H	 0.9515177695	 1.8858582598	-0.1763637285	 0.109289
H	-0.5358382598	 1.6270487017	-1.10401284	 0.112171
H	-0.6247998967	 1.9021180078	 0.6433400082	 0.123067
H	 0.6657684058	-0.5292792915	-0.7131437141	 0.05057
H	 0.8395463814	-1.4635272081	 1.5984266283	 0.112171
H	 1.7762409705	 0.0326461455	 1.4441148039	 0.109289
H	 0.2003752017	 0.0478795989	 2.264707094	 0.123067
H	-2.9194950525	-0.7994607703	-1.2813390952	 0.113949
H	-1.2607175577	-0.8299213984	-2.0586866455	 0.10636
H	-0.4746966299	-2.5961744424	-0.5142243544	 0.106361
H	-2.0931535755	-2.656323946	 0.3423499425	 0.113949
118.0526	216.6794	226.5378	237.9595	301.1914	344.2252	480.8375	490.3506	713.9715	822.6556	891.0657	906.1087	932.6565	963.0357	995.042	1026.6444	1108.2659	1113.4521	1117.5792	1148.9065	1182.682	1194.7695	1211.8477	1315.9908	1365.5696	1371.3169	1399.4047	1418.124	1482.4683	1488.0817	1489.5718	1495.6781	1511.3919	1517.1379	2901.1252	3034.784	3038.7976	3087.5728	3092.2324	3106.7482	3108.4985	3109.5639	3115.296	3171.5426	3185.821
CC(C)N1CC1	CC(C)N1CC1	
InChI=1S/C5H11N/c1-5(2)6-3-4-6/h5H,3-4H2,1-2H3	InChI=1S/C5H11N/c1-5(2)6-3-4-6/h5H,3-4H2,1-2H3
