13
gdb 3746	6.76738	2.20545	1.68098	2.3359	56.45	-0.2132	0.028	0.2412	708.1475	0.103371	-340.657975	-340.651529	-340.650585	-340.688556	23.232	
C	 0.0155378021	 1.3768461005	 0.1058677986	-0.313995
N	 0.0147366986	-0.0609460369	-0.0168144449	 0.056613
C	-0.1769793537	-0.809847136	-1.1259882549	-0.007824
C	-0.0891962469	-2.1366126048	-0.7545287841	-0.332985
C	 0.1633080997	-2.0735766296	 0.6309202503	 0.441846
O	 0.3289839077	-3.1331355101	 1.4502383117	-0.428694
N	 0.2276220306	-0.8284677684	 1.0843136671	-0.382913
H	 0.9818694591	 1.7295383186	 0.4786326471	 0.145509
H	-0.1706043918	 1.8137576064	-0.8768828199	 0.136199
H	-0.7664144234	 1.7032657671	 0.7980746391	 0.145502
H	-0.3593859985	-0.3512796124	-2.0856836449	 0.128936
H	-0.1895063099	-3.0108933979	-1.3743684369	 0.109828
H	 0.4855598865	-2.7812891165	 2.3354681217	 0.301977
63.8035	176.4023	303.4357	334.7938	416.2623	471.2094	611.4463	643.3235	714.239	747.013	755.7573	822.5641	1010.5943	1023.6332	1070.1359	1090.103	1153.2529	1202.5751	1282.4474	1333.9746	1418.0641	1457.0572	1471.4234	1482.1319	1530.8169	1567.0799	1599.5797	3041.9342	3103.3258	3141.4838	3253.2258	3285.5704	3796.0228
CN1C=CC(O)=N1	Cn1ccc(O)n1	
InChI=1S/C4H6N2O/c1-6-3-2-4(7)5-6/h2-3H,1H3,(H,5,7)	InChI=1S/C4H6N2O/c1-6-3-2-4(7)5-6/h2-3H,1H3,(H,5,7)
