16
gdb 3217	3.47367	3.1567	2.21603	2.6337	59.7	-0.2368	0.0745	0.3113	659.7437	0.137687	-325.73039	-325.723759	-325.722815	-325.7606	25.561	
C	-0.1700749523	 1.5599473359	-0.0148787698	-0.404113
C	-0.0059688502	 0.0485561024	-0.0221191944	-0.021779
C	 0.7212245882	-0.6149425269	-1.1977037809	-0.05452
N	 2.1275723961	-0.1362363343	-1.146323495	-0.356344
C	 1.7003258511	-1.280006904	-0.297862899	-0.083555
C	 1.0884516867	-0.6023485497	 0.9362540909	 0.132005
O	 1.9343774478	 0.250096186	 1.6544926441	-0.431835
H	 0.7658510878	 2.0567456989	-0.2820940688	 0.12507
H	-0.9359358895	 1.874500175	-0.7322397013	 0.107535
H	-0.4693129538	 1.9130772669	 0.976765827	 0.122366
H	-0.9662666299	-0.4478269135	 0.1521518497	 0.071883
H	 0.3000362346	-0.9697978561	-2.1307071734	 0.091562
H	 2.6174703134	-0.5182233287	-1.9531592868	 0.23318
H	 2.1947409755	-2.2408447324	-0.3745423886	 0.092102
H	 0.6455479468	-1.2994601629	 1.6506789636	 0.085045
H	 2.4610318678	 0.7090314134	 0.9853972227	 0.291399
141.2828	186.3716	232.0333	280.5284	430.9831	523.6495	573.6444	623.5738	677.7868	777.8875	821.1528	842.815	888.8785	908.391	955.1024	1001.2454	1041.5822	1073.0119	1098.4553	1113.5321	1137.5566	1149.2998	1184.962	1243.7661	1266.0309	1319.958	1327.3052	1363.8371	1378.983	1409.4003	1448.6839	1488.0874	1504.2357	3037.3031	3052.5347	3093.4165	3101.1811	3123.5833	3179.8557	3193.7807	3492.3035	3749.4701
CC1C2NC2C1O	C[C@H]1[C@H]2N[C@H]2[C@H]1O	
InChI=1S/C5H9NO/c1-2-3-4(6-3)5(2)7/h2-7H,1H3	InChI=1S/C5H9NO/c1-2-3-4(6-3)5(2)7/h2-7H,1H3/t2-,3+,4+,5-/m0/s1
