15
gdb 2303	5.73435	1.47145	1.27971	1.6611	66.9	-0.2381	0.0438	0.2819	952.9426	0.123054	-308.477155	-308.468994	-308.46805	-308.51031	28.098	
C	-0.1114619944	 1.4219791181	 0.0341529588	-0.500223
C	-0.0688636977	-0.033858762	 0.0293356569	 0.08714
C	 0.0103116716	-1.2384265109	 0.039987671	 0.036672
C	 0.0181115556	-2.6710094041	 0.0232055941	-0.226877
C	-0.443224512	-3.4535313816	 1.2560787907	-0.312353
C	-1.3345752625	-3.3738428619	 0.0533227823	 0.146036
O	-2.4989029914	-2.6168722914	 0.0926657884	-0.428152
H	 0.8977469138	 1.8435213186	 0.0990323201	 0.15278
H	-0.5771808287	 1.8158148135	-0.8760103306	 0.149178
H	-0.6818823292	 1.7998448029	 0.8897823063	 0.150975
H	 0.7931261456	-3.1311308289	-0.5822355757	 0.112075
H	 0.0695548681	-4.3838240253	 1.4748458734	 0.116265
H	-0.7379917988	-2.8689444277	 2.1195423737	 0.128437
H	-1.4368983759	-4.2609753625	-0.5663977917	 0.102052
H	-2.2530808641	-1.6942850768	-0.0617865877	 0.285996
41.5006	94.3725	122.6227	198.669	254.5096	303.2596	398.3161	409.4022	514.4884	600.7614	712.5523	779.6311	829.7106	922.1823	995.2711	1043.6275	1050.1956	1053.1602	1057.5648	1113.3508	1147.5356	1190.4195	1232.037	1363.3588	1371.767	1411.0396	1419.763	1472.8234	1476.7374	1479.6592	2355.3183	3026.8891	3087.0181	3089.2606	3136.9159	3139.961	3151.9819	3235.818	3731.0612
CC#CC1CC1O	CC#C[C@H]1C[C@H]1O	
InChI=1S/C6H8O/c1-2-3-5-4-6(5)7/h5-7H,4H2,1H3	InChI=1S/C6H8O/c1-2-3-5-4-6(5)7/h5-7H,4H2,1H3/t5-,6+/m0/s1
