14
gdb 4573	5.84594	1.56079	1.24134	1.2359	67.81	-0.2381	-0.0442	0.1939	928.1786	0.108769	-378.787945	-378.781086	-378.780142	-378.819185	25.468	
C	-0.0403041016	 1.4998340803	-0.0018749996	-0.470811
C	 0.0108620476	-0.0030637504	-0.0099958108	 0.308655
C	-0.0774944569	-0.7480322716	-1.1823744765	-0.067169
N	-0.0325355641	-2.0856573439	-1.1955608369	-0.335858
C	 0.1022260631	-2.6815973008	-0.0226609088	 0.403464
O	 0.1528022341	-4.0271592853	 0.0190689509	-0.41417
C	 0.1934627809	-1.9522662404	 1.1737218907	-0.083523
N	 0.1476956752	-0.630371434	 1.1729462383	-0.280924
H	 0.872736447	 1.9153850541	 0.4365028501	 0.140839
H	-0.1522069342	 1.900574813	-1.0125882648	 0.121647
H	-0.8784420949	 1.8548827897	 0.6063731445	 0.140836
H	-0.1882644025	-0.258237956	-2.1464747024	 0.112181
H	 0.0742678433	-4.3316556414	-0.8959503607	 0.300879
H	 0.303751153	-2.4663539734	 2.1242164461	 0.123953
82.6558	131.9684	308.6945	350.7035	428.0229	439.2281	495.3832	513.0276	575.7429	661.3251	768.4123	791.4324	893.9751	919.0793	958.051	1005.8943	1042.9098	1063.6858	1177.9464	1259.682	1278.4731	1312.4492	1355.4425	1414.4302	1429.1885	1476.0111	1495.3914	1521.126	1597.1709	1640.7451	3039.6611	3099.1462	3122.1478	3159.8811	3171.3176	3763.7249
CC1=CN=C(O)C=N1	Cc1cnc(O)cn1	
InChI=1S/C5H6N2O/c1-4-2-7-5(8)3-6-4/h2-3H,1H3,(H,7,8)	InChI=1S/C5H6N2O/c1-4-2-7-5(8)3-6-4/h2-3H,1H3,(H,7,8)
