18
gdb 1811	3.55391	2.49974	1.80576	2.6786	63.57	-0.2329	0.0638	0.2967	772.3621	0.159009	-326.954728	-326.946554	-326.94561	-326.986558	30.426	
C	-0.0593366961	 1.5306903746	 0.3714585933	-0.412704
C	-0.0845669734	 0.0418540687	 0.0121489112	 0.059601
O	 0.6556555625	-0.7139857332	 0.9693945912	-0.441511
C	-1.4996820079	-0.5353780405	-0.0273265976	 0.35361
C	-2.4427423393	 0.1282391809	-1.0096388463	-0.458882
C	-1.6805544824	-1.9749195976	 0.2856347899	-0.280512
N	-2.1139338744	-0.9379166047	 1.2497250998	-0.359718
H	 0.9750912447	 1.886801653	 0.4457321576	 0.103265
H	-0.5557945931	 2.136697156	-0.3907480783	 0.126743
H	-0.553933672	 1.7046680595	 1.3320276908	 0.131435
H	 0.3608977963	-0.0888864194	-0.988586447	 0.071298
H	 1.4965838998	-0.271226937	 1.1139081467	 0.286672
H	-2.0367131849	 0.1005339548	-2.0277286505	 0.109849
H	-3.4038724698	-0.3907706192	-1.0100499273	 0.128364
H	-2.6337697676	 1.1735227297	-0.7469276679	 0.119325
H	-2.4899412467	-2.5239565566	-0.1887980391	 0.104238
H	-0.8023767059	-2.5609086627	 0.5322085328	 0.125128
H	-1.3979763996	-0.8803885563	 1.9722356808	 0.2338
76.7856	188.7867	221.6685	237.1659	277.7112	294.191	359.0971	363.5819	418.7182	478.3815	566.9335	690.0369	837.7935	857.8479	928.7037	934.9837	989.4654	1019.2474	1028.2352	1075.2207	1096.2756	1127.0743	1134.0525	1159.1299	1240.6238	1288.5089	1322.8905	1364.6917	1381.4698	1406.7873	1419.2431	1420.1692	1485.9105	1489.7891	1495.6751	1505.4702	1509.2603	2955.9057	3029.4186	3032.7332	3093.8267	3098.5803	3113.0119	3122.0438	3125.8295	3211.6427	3484.4141	3837.87
CC(O)C1(C)CN1	C[C@@H](O)[C@@]1(C)CN1	
InChI=1S/C5H11NO/c1-4(7)5(2)3-6-5/h4,6-7H,3H2,1-2H3	InChI=1S/C5H11NO/c1-4(7)5(2)3-6-5/h4,6-7H,3H2,1-2H3/t4-,5-/m1/s1
