16
gdb 1129	5.07689	1.59409	1.52644	5.0268	57.61	-0.2454	0.0192	0.2646	863.0532	0.136073	-362.937518	-362.929719	-362.928774	-362.969586	27.655	
C	 0.0593034918	 1.4160576059	-0.1217806175	-0.322839
N	-0.0185670185	-0.0039622744	 0.2085803187	-0.087638
H	 0.2931515811	-1.6170134222	-0.8449141554	 0.298084
C	 0.6578719991	-0.3038487426	 1.4708397366	-0.331735
C	-1.3810588053	-0.5335806389	 0.1841717329	-0.294027
C	-1.4019979077	-2.0192106609	-0.2091315472	 0.411118
O	-0.2849053845	-2.4105863472	-0.8428151493	-0.360841
O	-2.3343685493	-2.7461655327	-0.0050470687	-0.330174
H	 1.108826505	 1.7203900977	-0.1736695482	 0.128858
H	-0.3969109433	 1.5957247241	-1.0991398799	 0.129945
H	-0.4452582813	 2.057587492	 0.6207327022	 0.109928
H	 0.1911944473	 0.20913791	 2.3291006053	 0.113219
H	 0.6325089198	-1.3807010304	 1.6594255424	 0.142026
H	 1.7044702752	 0.0074981289	 1.410515262	 0.129072
H	-1.9220495585	-0.4173711262	 1.1341602138	 0.126766
H	-1.9581442411	-0.0019815831	-0.5802390476	 0.138239
83.2303	110.6924	190.0689	245.2016	256.2857	365.0639	392.763	395.1892	500.3828	580.3249	646.6455	841.5985	869.697	879.4014	995.6761	1058.4317	1064.4156	1123.1117	1166.3581	1194.6405	1222.6552	1300.4186	1304.7068	1358.3234	1410.4105	1446.4176	1460.6245	1483.2874	1486.4774	1500.6335	1501.9058	1513.9548	1880.7836	2963.3615	2968.4167	3010.9004	3073.2595	3077.1409	3078.0323	3115.6198	3120.0663	3492.507
C[NH+](C)CC([O-])=O	CN(C)CC(=O)O	
InChI=1S/C4H9NO2/c1-5(2)3-4(6)7/h3H2,1-2H3,(H,6,7)	InChI=1S/C4H9NO2/c1-5(2)3-4(6)7/h3H2,1-2H3,(H,6,7)
