14
gdb 4764	6.78963	1.33713	1.13174	2.5057	62.56	-0.2102	0.0221	0.2323	1016.2523	0.106613	-415.864258	-415.856265	-415.855321	-415.897909	27.635	
C	 0.0238550429	 1.37591036	-0.0697468978	-0.330845
N	 0.212370576	-0.0631535768	-0.0683024782	-0.361894
C	 0.6624255159	-0.6265848437	 0.9526046383	 0.528574
O	 1.0303937307	-0.0515083472	 2.1557982702	-0.229396
C	 1.4582791397	-1.0798350125	 2.9717757204	-0.064507
C	 1.3702688452	-2.2356767369	 2.3221402414	 0.256429
N	 1.6751968721	-3.5340124722	 2.6998046973	-0.602135
O	 0.8687802811	-1.973698465	 1.0377612459	-0.242542
H	 0.6988566036	 1.8327481718	-0.8032935194	 0.125602
H	-0.9976050596	 1.6037847064	-0.3935812138	 0.125835
H	 0.1954410762	 1.8561295655	 0.9011881355	 0.120466
H	 1.7877259482	-0.8291917508	 3.9640089946	 0.160668
H	 2.3951531315	-3.9418394987	 2.1103163913	 0.256872
H	 0.8617629466	-4.1414466498	 2.6612517345	 0.256874
21.7562	114.9273	136.5473	207.7533	255.9193	341.7742	348.9685	544.772	580.8263	666.67	723.2183	749.3091	775.1988	798.8443	875.4082	935.7201	1078.4427	1105.6814	1135.0158	1137.9044	1199.5904	1224.1497	1259.8795	1318.4378	1447.8778	1494.8864	1503.2968	1655.3951	1783.6153	1849.1406	3012.5405	3071.9057	3081.1909	3309.8748	3493.3298	3557.7143
CN=C1OC=C(N)O1	CN=c1occ(N)o1	
InChI=1S/C4H6N2O2/c1-6-4-7-2-3(5)8-4/h2H,5H2,1H3	InChI=1S/C4H6N2O2/c1-6-4-7-2-3(5)8-4/h2H,5H2,1H3
