6
gdb 28	56.25048	4.77441	4.40088	0.002	26.12	-0.2668	-0.1113	0.1555	266.8164	0.036943	-227.798785	-227.79457	-227.793626	-227.825074	12.147	
O	 0.0033712246	-0.0314658631	 0.0015720628	-0.196988
C	-0.0171317373	 1.1708140858	 0.0067644382	 0.085173
C	 1.2655578297	 1.9971940991	-0.0000770322	 0.085173
O	 1.2450706894	 3.1994658927	 0.0068127529	-0.196988
H	-0.9469048284	 1.7767814241	 0.0185266798	 0.111815
H	 2.195344102	 1.3912137414	-0.0100673915	 0.111815
142.9342	323.9482	553.5054	819.4302	1066.3258	1082.3752	1337.8644	1381.2577	1821.4604	1822.7209	2929.5727	2934.7326
O=CC=O	O=CC=O	
InChI=1S/C2H2O2/c3-1-2-4/h1-2H	InChI=1S/C2H2O2/c3-1-2-4/h1-2H
