15
gdb 903	7.22374	2.01491	1.60711	3.5741	63.83	-0.2122	0.0367	0.249	777.9635	0.12626	-304.743934	-304.736809	-304.735865	-304.775338	24.914	
C	-0.0538974984	 1.4652962946	-0.0013464598	-0.337241
N	 0.0105562898	 0.0196040589	 0.0205504506	 0.026573
C	 0.0992327205	-0.8127505621	-1.0545908803	-0.002933
N	 0.1382937867	-2.0779230853	-0.7066801462	-0.320881
C	 0.0716678876	-2.0825134846	 0.671389118	 0.283202
C	 0.0901354405	-3.3557002705	 1.4535588895	-0.484595
C	-0.0078764834	-0.7934135604	 1.1359655781	-0.209491
H	 0.7907439899	 1.9046140562	 0.5389595844	 0.14287
H	-0.0174691095	 1.8063415881	-1.0378947512	 0.144597
H	-0.9842942581	 1.8242247378	 0.450199656	 0.142884
H	 0.1312385753	-0.4290439902	-2.0645878604	 0.120905
H	 1.0070484396	-3.9233895142	 1.2613155316	 0.131435
H	 0.0293024562	-3.1592473921	 2.5275945115	 0.113147
H	-0.7502417142	-4.0011536458	 1.1759169835	 0.131437
H	-0.0740047424	-0.3840038104	 2.1311329447	 0.118092
77.372	101.9755	165.1913	266.3228	295.9402	403.1396	604.3213	632.53	684.7845	721.6563	741.8433	817.6615	980.7346	1015.7844	1061.009	1063.7262	1079.9143	1151.5503	1188.2839	1257.5979	1313.9293	1388.7605	1404.8718	1430.6246	1456.3164	1475.6086	1481.9702	1489.9858	1519.1226	1545.251	1603.3954	3033.3055	3036.5799	3087.3357	3095.6725	3113.8766	3133.7224	3237.1392	3262.9764
CN1C=NC(C)=C1	Cn1cnc(C)c1	
InChI=1S/C5H8N2/c1-5-3-7(2)4-6-5/h3-4H,1-2H3	InChI=1S/C5H8N2/c1-5-3-7(2)4-6-5/h3-4H,1-2H3
