12
gdb 1391	4.85645	1.42722	1.15584	4.1824	59.11	-0.2796	-0.0099	0.2697	979.765	0.088005	-323.351196	-323.343089	-323.342145	-323.384893	26.523	
C	-0.0212015614	 1.4823552945	 0.0124600622	-0.499927
C	 0.0174934775	 0.0288309301	-0.0108971701	 0.070034
C	 0.0569617689	-1.1736886334	-0.0281832549	 0.083615
C	 0.0640231412	-2.6375421139	-0.0507008359	-0.17803
O	-1.1987644484	-3.2157630482	 0.2283047708	-0.384562
C	 0.5992951659	-3.1284555188	-1.3468585783	 0.279091
N	 0.9963737462	-3.5235282378	-2.3569715861	-0.319115
H	 0.7487069155	 1.8850240297	 0.6788138374	 0.160814
H	 0.1463336603	 1.8972367245	-0.9868437774	 0.162186
H	-0.9925365681	 1.8421220909	 0.3679308073	 0.159831
H	 0.7281909287	-3.0165892426	 0.73594314	 0.167224
H	-1.8410235364	-2.8232453851	-0.3751344751	 0.298838
25.873	87.5042	132.8047	208.6558	258.5245	314.5573	351.6572	395.9922	503.6477	543.612	613.2415	791.0816	917.906	1042.1815	1051.2255	1053.0831	1170.5169	1262.9859	1315.7007	1411.6187	1415.8599	1473.3595	1475.2353	2359.131	2375.1602	3034.8733	3043.4555	3099.4786	3101.1493	3799.6682
CC#CC(O)C#N	CC#C[C@@H](O)C#N	
InChI=1S/C5H5NO/c1-2-3-5(7)4-6/h5,7H,1H3	InChI=1S/C5H5NO/c1-2-3-5(7)4-6/h5,7H,1H3/t5-/m1/s1
