15
gdb 1989	6.66628	1.60444	1.37235	2.5886	57.33	-0.2423	0.0312	0.2735	854.1692	0.125986	-341.84119	-341.833846	-341.832901	-341.873047	26.408	
N	 0.1421539916	 0.1826002464	-1.003541164	-0.522112
C	-0.0036069593	 0.0299022997	 0.3438014127	 0.392161
O	 0.4594571297	 0.8113581327	 1.1504695805	-0.363666
C	-0.8300545587	-1.1862388333	 0.7890949326	-0.322338
C	-0.9798003258	-2.28572983	-0.2332357068	 0.004703
C	-2.208661812	-3.1044166572	-0.3362906542	-0.247935
N	-1.8996849541	-2.1081879488	-1.3825067459	-0.327074
H	 0.6732424001	 0.9725107337	-1.3312881481	 0.259665
H	-0.2247836303	-0.4772145088	-1.6691104546	 0.279848
H	-0.3582437996	-1.5581835422	 1.7037167132	 0.139688
H	-1.8182536042	-0.8097114891	 1.085589865	 0.123147
H	-0.0452303019	-2.7614924029	-0.5255392381	 0.10592
H	-2.1467298863	-4.1400010052	-0.6569785573	 0.126594
H	-3.0241919356	-2.8903768033	 0.3495029841	 0.119016
H	-2.4738846436	-1.2820362217	-1.222311779	 0.232384
55.7843	111.6015	175.451	326.8907	343.4326	364.0911	468.8781	536.5267	573.4026	694.8412	794.6338	831.8964	853.181	930.5712	952.375	990.7249	1050.3509	1107.1637	1132.6706	1151.9925	1184.7983	1255.2636	1271.1101	1307.1559	1313.3925	1352.5414	1429.8069	1454.273	1511.5497	1621.1358	1801.5787	3030.1847	3090.1956	3112.7092	3125.3267	3199.3418	3476.9928	3590.6345	3726.9162
NC(=O)CC1CN1	NC(=O)C[C@H]1CN1	
InChI=1S/C4H8N2O/c5-4(7)1-3-2-6-3/h3,6H,1-2H2,(H2,5,7)	InChI=1S/C4H8N2O/c5-4(7)1-3-2-6-3/h3,6H,1-2H2,(H2,5,7)/t3-/m0/s1
