14
gdb 3384	8.09508	1.84459	1.65585	3.6388	60.01	-0.2411	0.0036	0.2447	744.8654	0.113838	-324.547564	-324.541368	-324.540424	-324.577691	22.666	
O	 0.1084204296	 0.0657291609	 0.3675589914	-0.295645
C	 0.0768374873	 1.2196878434	 0.0118687082	 0.133972
N	 1.1214861239	 1.8984304413	-0.5871599108	-0.072136
C	 2.4997601711	 1.791774213	-0.1462989098	-0.02439
C	 3.3781337303	 2.3637767781	-1.2687195301	-0.238378
C	 2.591537614	 3.7207142678	-1.154198774	-0.235085
C	 1.747155561	 3.0963989563	-0.0354155753	-0.046251
H	-0.8379245978	 1.8422365874	 0.0555782235	 0.082015
H	 2.7544122108	 1.0691645769	 0.6184217052	 0.123698
H	 4.4237221279	 2.4679922737	-0.9730392544	 0.113872
H	 3.3192027553	 1.8350581599	-2.2221589657	 0.118477
H	 3.2243983663	 4.536401104	-0.7990560441	 0.112852
H	 2.0339174577	 4.0474867973	-2.0343702746	 0.115576
H	 1.3236240126	 3.5731912001	 0.8411495606	 0.111423
111.6447	178.3601	254.9427	304.2197	418.5488	639.9571	735.9016	772.7553	795.5061	868.9598	917.0919	936.9152	956.0188	994.3325	1033.7549	1043.3851	1084.25	1121.2612	1174.255	1220.1126	1233.9776	1251.3242	1274.7667	1299.6642	1417.5337	1423.614	1468.3406	1488.9975	1793.2443	2946.5433	3071.4908	3078.4414	3123.2969	3139.4364	3185.7552	3210.3606
O=CN1C2CCC12	O=CN1[C@H]2CC[C@@H]12	
InChI=1S/C5H7NO/c7-3-6-4-1-2-5(4)6/h3-5H,1-2H2	InChI=1S/C5H7NO/c7-3-6-4-1-2-5(4)6/h3-5H,1-2H2/t4-,5+,6?
