15
gdb 1745	5.38124	1.68668	1.51119	2.8268	57.56	-0.2509	-0.0266	0.2243	825.5781	0.122278	-345.645239	-345.637564	-345.636619	-345.677638	26.706	
C	 0.0639102863	 1.6038039124	-0.3228206586	-0.457062
C	-0.0624713427	 0.103858092	-0.1709331801	 0.399217
C	-1.4389335716	-0.4150455994	 0.2228616443	-0.338087
C	-1.8211135257	 0.0162047608	 1.6269998557	 0.158258
O	-2.8598203384	 0.5496626809	 1.9201134473	-0.239759
C	 0.8710912204	-0.7896840949	-0.8722523714	-0.227122
O	 1.0203343094	-0.5341628597	 0.5268569879	-0.271192
H	 1.0951954591	 1.8792748042	-0.5544540211	 0.132165
H	-0.5867883643	 1.9673657741	-1.1250669307	 0.129297
H	-0.2285948262	 2.1166655633	 0.5997292724	 0.137552
H	-2.2110155211	-0.0748511362	-0.4735453984	 0.12268
H	-1.4170020241	-1.5121955322	 0.2146950428	 0.125953
H	-1.0486576816	-0.2099433127	 2.3948313521	 0.097562
H	 0.5618943503	-1.8007990409	-1.1347469682	 0.113811
H	 1.6463182902	-0.3641178816	-1.5080471439	 0.116727
61.7203	73.2741	192.4677	206.8493	336.666	353.2349	381.7214	481.9429	496.6424	707.1593	799.4178	858.7461	909.2237	934.042	978.1836	1045.0552	1073.6273	1117.0418	1135.6264	1166.4956	1199.968	1274.6827	1306.6088	1400.2697	1421.2198	1422.573	1448.0518	1485.4995	1493.8645	1531.4802	1832.9108	2895.3166	3033.2073	3038.5157	3080.6726	3100.0187	3103.6353	3129.4215	3166.912
CC1(CC=O)CO1	C[C@@]1(CC=O)CO1	
InChI=1S/C5H8O2/c1-5(2-3-6)4-7-5/h3H,2,4H2,1H3	InChI=1S/C5H8O2/c1-5(2-3-6)4-7-5/h3H,2,4H2,1H3/t5-/m1/s1
