19
gdb 4107	2.84762	1.81747	1.17249	0.7843	74.52	-0.2373	0.0142	0.2515	1040.9074	0.165695	-365.049473	-365.041233	-365.040289	-365.082007	31.236	
C	-0.2874918536	 1.5020498926	 0.067121845	-0.401881
C	 0.0582164856	 0.0164116677	-0.0061985169	-0.042468
C	 0.9525263891	-0.4088819921	-1.1905560596	-0.211636
C	 1.5201401445	-1.7740056164	-0.7592597157	-0.224585
C	 1.7947405968	-1.607479503	 0.750169563	-0.292773
C	 0.8270378024	-0.5274876683	 1.1863893987	 0.405895
N	 0.6528448109	-0.0634401061	 2.3575542658	-0.233805
O	 1.4791714347	-0.7200804656	 3.2923842469	-0.397355
H	 0.6217876233	 2.1098385852	 0.1213847702	 0.115329
H	-0.8543759374	 1.8130979809	-0.8162788175	 0.106465
H	-0.8843740646	 1.7188852077	 0.9563196113	 0.132486
H	-0.8787205271	-0.5586679774	-0.0768838902	 0.090663
H	 0.4080482219	-0.446505557	-2.1381495693	 0.096525
H	 1.7678165637	 0.3170319138	-1.3084037386	 0.099636
H	 0.7662582019	-2.5538758455	-0.917973557	 0.102661
H	 2.4096299333	-2.066109104	-1.3231112931	 0.099021
H	 1.6676801851	-2.5237736128	 1.3337470218	 0.125322
H	 2.8188782183	-1.2647317835	 0.9439683057	 0.126923
H	 1.2523939011	-0.2696963863	 4.1126475596	 0.303579
76.2555	184.7066	203.5464	206.0524	244.8277	298.9752	372.8056	446.8434	506.8442	526.0818	585.9018	617.0573	763.8616	841.9145	859.3584	906.4419	936.6099	975.5717	979.7991	1014.9857	1030.8575	1077.5422	1141.8828	1174.9566	1207.3781	1216.8646	1234.5866	1303.7645	1313.2396	1324.0157	1341.7327	1361.2128	1398.8573	1410.91	1464.4566	1489.2639	1494.0995	1498.6291	1504.6305	1752.7792	2977.1837	3025.3314	3037.0901	3037.4597	3041.2649	3086.1177	3090.2576	3099.8428	3103.4022	3122.6564	3821.019
CC1CCCC1=NO	C[C@H]1CCCC1=NO	
InChI=1S/C6H11NO/c1-5-3-2-4-6(5)7-8/h5,8H,2-4H2,1H3	InChI=1S/C6H11NO/c1-5-3-2-4-6(5)7-8/h5,8H,2-4H2,1H3/t5-/m0/s1
