13
gdb 936	5.90331	2.75259	1.89923	1.565	61.2	-0.2443	-0.0361	0.2082	651.2143	0.103946	-303.560907	-303.554892	-303.553948	-303.591796	21.333	
C	-0.0132642079	 1.4899777637	 0.0152069303	-0.457949
C	 0.0052141165	-0.0132325647	 0.0120664667	 0.357324
N	 0.1149089184	-0.61505743	-1.1822719454	-0.275135
C	 0.1309665586	-1.9464968095	-1.1806609758	 0.011794
C	 0.0399235972	-2.695290946	-0.0122768433	-0.134887
C	-0.0699819027	-1.9720084923	 1.1672112067	 0.01191
N	-0.0884567406	-0.6373878292	 1.1933226261	-0.272854
H	 0.9034971679	 1.8800862795	-0.4381473189	 0.140965
H	-0.8473509151	 1.8589116014	-0.5900396346	 0.140958
H	-0.1061095992	 1.8666431012	 1.033807596	 0.136388
H	 0.2200493018	-2.4307421381	-2.1512736447	 0.116098
H	 0.0539714268	-3.7783074263	-0.0225718894	 0.109056
H	-0.1463800918	-2.4740840098	 2.1296223663	 0.116333
25.3859	182.9986	363.7913	411.2507	479.4455	583.3095	645.3997	775.7979	830.8073	834.5311	995.6515	1000.861	1010.588	1010.7137	1071.7498	1096.8136	1128.2741	1241.0966	1299.5966	1309.9942	1404.3738	1454.5736	1465.63	1479.1497	1486.9291	1601.3605	1621.2994	3047.744	3104.6331	3147.3946	3149.9169	3156.7641	3208.9972
CC1=NC=CC=N1	Cc1ncccn1	
InChI=1S/C5H6N2/c1-5-6-3-2-4-7-5/h2-4H,1H3	InChI=1S/C5H6N2/c1-5-6-3-2-4-7-5/h2-4H,1H3
