11
gdb 77	10.20392	4.16834	3.07281	1.7569	39.33	-0.2685	0.0174	0.2859	427.6606	0.089436	-268.32127	-268.315051	-268.314106	-268.351214	19.501	
C	 0.0729525429	 1.3884091921	 0.0644204587	-0.234953
O	 0.2104911438	-0.0374002825	 0.0461273579	-0.225006
C	 0.5010280504	-0.5722428814	-1.1597534587	 0.429062
C	 0.6221871489	-2.073783229	-1.0603068403	-0.47714
O	 0.6392215379	 0.0822441797	-2.1615732482	-0.349916
H	 1.0002972028	 1.870625701	-0.255320639	 0.139619
H	-0.7333895655	 1.7078208948	-0.6008045417	 0.139618
H	-0.1575128017	 1.6515405981	 1.0969295399	 0.131082
H	-0.3133000098	-2.5020285112	-0.6894190647	 0.149753
H	 0.8564658848	-2.4843027463	-2.0415735164	 0.148133
H	 1.4065168456	-2.3405549554	-0.3463430074	 0.149749
53.7495	119.128	178.9955	281.2523	419.5918	608.9344	643.9829	859.8583	985.6235	1065.0966	1078.7387	1179.7098	1210.1994	1272.2798	1393.807	1468.5485	1474.7105	1476.1777	1481.6103	1498.4582	1828.4398	3050.2792	3057.2221	3121.7717	3124.0097	3156.4518	3169.3513
COC(C)=O	COC(=O)C	
InChI=1S/C3H6O2/c1-3(4)5-2/h1-2H3	InChI=1S/C3H6O2/c1-3(4)5-2/h1-2H3
