15
gdb 85	7.55335	3.78323	2.80566	1.0758	49.8	-0.2476	0.086	0.3336	507.9614	0.135681	-233.545899	-233.539034	-233.53809	-233.57582	23.573	
C	-0.0085760478	 1.3809783291	 0.0945466951	-0.233061
O	-0.0225510605	-0.0073946113	-0.1306257644	-0.241083
C	-1.3024334096	-0.6199780535	-0.0208830923	 0.161805
C	-1.186872855	-1.9788575126	-0.7030391811	-0.384849
C	-1.755878239	-0.7466275965	 1.4371450806	-0.390428
H	 1.0032154965	 1.7325808731	-0.1244349624	 0.124584
H	-0.7151146831	 1.9083827486	-0.5667427996	 0.099652
H	-0.2490906457	 1.6496723678	 1.1338468082	 0.103633
H	-2.037379782	-0.0043224087	-0.5688419809	 0.059687
H	-0.4479277926	-2.5994560461	-0.1859686979	 0.122123
H	-2.1475104125	-2.5022552504	-0.6910258135	 0.109934
H	-0.8652421244	-1.8586067871	-1.7407783572	 0.119603
H	-2.7332148241	-1.2367490799	 1.4920511713	 0.11319
H	-1.0362134992	-1.3448382757	 2.0054467075	 0.121239
H	-1.8489841012	 0.2293548332	 1.9219808666	 0.113972
82.1816	199.6633	212.9167	247.1222	299.9198	357.3808	444.2436	499.0539	804.432	917.3199	924.854	943.1701	1117.6826	1139.9976	1156.0838	1181.8265	1199.1116	1238.7207	1367.2688	1379.3224	1397.3551	1413.4948	1476.7727	1479.5148	1485.0259	1488.5362	1499.3978	1509.6572	1515.3752	2945.3751	2971.7262	3019.2672	3037.012	3042.4464	3105.7194	3107.0014	3112.6847	3115.9854	3122.5625
COC(C)C	COC(C)C	
InChI=1S/C4H10O/c1-4(2)5-3/h4H,1-3H3	InChI=1S/C4H10O/c1-4(2)5-3/h4H,1-3H3
