14
gdb 4528	3.6238	1.81534	1.22009	1.9246	60.69	-0.1721	0.0546	0.2267	927.2951	0.10918	-412.071537	-412.06359	-412.062645	-412.103296	29.523	
N	-0.017736472	 1.3459402165	-0.1690508976	-0.595695
C	-0.0141633799	-0.0449403517	-0.0708552904	 0.383703
N	-1.0906295347	-0.8101485672	-0.0695070278	-0.399582
C	-0.6099891388	-2.0947691717	-0.0597774173	 0.299373
O	-1.4496913177	-3.1591578493	-0.0531637182	-0.447556
C	 0.7560604898	-2.1364252986	-0.0393912965	 0.13586
N	 1.737319842	-3.1435913408	 0.0025181136	-0.620967
N	 1.1230332164	-0.7749599677	-0.0460223644	-0.303885
H	 0.5554772989	 1.8018592225	 0.5314227569	 0.246716
H	-0.9693674668	 1.6853236584	-0.1031654147	 0.258053
H	-2.3417332088	-2.7929607737	-0.0581838258	 0.295999
H	 1.7201407858	-3.730434113	-0.825282517	 0.244028
H	 1.625379332	-3.7528350149	 0.8061698371	 0.244074
H	 2.0690150739	-0.4426890688	-0.1250657779	 0.259879
157.9061	188.7461	217.2048	261.8898	269.3734	311.9826	348.7211	350.9208	459.0217	550.9579	636.0149	668.0092	676.3976	724.5703	774.8069	795.7393	853.7457	1054.658	1116.1124	1156.2785	1212.2169	1231.1961	1268.4487	1366.4832	1449.0535	1523.3957	1594.3726	1649.4885	1663.0304	1712.9398	3495.8997	3524.715	3554.9416	3622.6536	3671.2405	3811.4342
NC1=NC(O)=C(N)N1	Nc1nc(O)c(N)[nH]1	
InChI=1S/C3H6N4O/c4-1-2(8)7-3(5)6-1/h8H,4H2,(H3,5,6,7)	InChI=1S/C3H6N4O/c4-1-2(8)7-3(5)6-1/h8H,4H2,(H3,5,6,7)
