14
gdb 3497	7.06519	2.04655	1.94924	4.107	62.12	-0.3054	0.0245	0.3299	679.6258	0.11571	-287.404397	-287.39881	-287.397866	-287.433681	21.568	
N	-0.0835079345	-1.1892813523	-0.1006935125	-0.334735
C	-0.0417911973	-0.0349900712	-0.0415740985	 0.26005
C	-0.0071243211	 1.4174871021	 0.0177244241	-0.125805
C	 0.0706884332	 2.1241745434	 1.415294404	-0.035294
C	 1.5438560187	 1.6318851503	 1.5205063903	-0.231289
C	 1.3795570595	 2.1481740633	 0.061022908	-0.035337
C	 0.6150311329	 3.3669671404	 0.6535685835	-0.228682
H	-0.7365500943	 1.8378601341	-0.6797867594	 0.113445
H	-0.700701538	 2.0956864946	 2.1842661608	 0.092353
H	 2.2012614491	 2.2179720802	 2.1662571448	 0.101681
H	 1.7003177215	 0.5598684609	 1.6527193778	 0.127361
H	 2.1220435837	 2.1474405815	-0.7364007269	 0.09234
H	-0.0806562135	 3.887973943	-0.0095620299	 0.099688
H	 1.21142663	 4.0665862797	 1.242360724	 0.104225
175.4068	176.7449	442.7794	505.8614	539.3588	588.9492	772.6168	808.1414	876.4073	878.7422	904.8031	909.1885	1004.1697	1013.6318	1028.1838	1062.1831	1089.4209	1114.8501	1129.0427	1136.4663	1196.5531	1210.4406	1241.2511	1246.956	1257.0437	1367.2218	1502.8831	1539.2456	2350.7753	3059.8853	3069.8327	3078.4274	3120.7316	3124.3147	3129.9762	3138.281
N#CC1C2CC1C2	N#C[C@H]1[C@H]2C[C@@H]1C2	
InChI=1S/C6H7N/c7-3-6-4-1-5(6)2-4/h4-6H,1-2H2	InChI=1S/C6H7N/c7-3-6-4-1-5(6)2-4/h4-6H,1-2H2/t4-,5+,6-
