14
gdb 268	8.89923	1.94768	1.64777	3.6117	51.17	-0.2449	-0.0102	0.2347	743.2534	0.116412	-307.571921	-307.564235	-307.563291	-307.604498	24.783	
C	-0.0174701173	 1.3956405995	 0.052678548	-0.225944
O	-0.0434294319	-0.0115619514	 0.0024190213	-0.208072
C	 0.6424947474	-0.6041443545	 1.0606698235	-0.149712
C	 0.5953246216	-2.1266220697	 0.946010035	 0.360029
C	 1.2343059955	-2.8726621294	 2.1060953502	-0.483087
O	 0.08672355	-2.6876949797	 0.009546777	-0.268196
H	 1.0107817252	 1.7884049497	 0.0049699528	 0.104646
H	-0.5757478493	 1.7598593594	-0.8125269762	 0.134908
H	-0.489452755	 1.782269593	 0.9700953197	 0.10431
H	 1.7058547525	-0.2972966891	 1.0858899885	 0.103951
H	 0.222278651	-0.3124348393	 2.0419024443	 0.101361
H	 0.6242131954	-2.7506978753	 3.008841311	 0.14383
H	 1.3023801448	-3.9335078749	 1.8631112599	 0.147799
H	 2.2297775	-2.4775867583	 2.335473525	 0.134177
39.4753	90.9403	107.4007	180.4978	237.5684	357.9688	397.803	481.092	598.7132	836.6947	866.9175	933.0651	1039.4212	1095.3754	1171.3695	1183.8993	1186.2031	1243.8473	1261.1162	1381.3645	1406.4466	1462.3442	1469.4792	1476.7011	1486.9274	1491.9966	1516.3726	1837.3127	2925.6731	2944.0476	2969.2287	3012.7401	3036.861	3097.6712	3120.5915	3153.7975
COCC(C)=O	COCC(=O)C	
InChI=1S/C4H8O2/c1-4(5)3-6-2/h3H2,1-2H3	InChI=1S/C4H8O2/c1-4(5)3-6-2/h3H2,1-2H3
