21
gdb 1145	3.28838	2.39996	1.82774	0.0814	74.94	-0.2509	0.0809	0.3318	835.5467	0.192548	-274.987245	-274.978314	-274.97737	-275.019388	33.779	
C	-0.0552063484	 1.516736289	-0.0430239982	-0.449566
C	-0.003606051	-0.0024391136	 0.0080689983	 0.315464
C	-1.2402036668	-0.6223416876	-0.6241392762	-0.44957
C	 1.3337523006	-0.685637517	-0.2041344358	-0.369379
C	 0.6943576876	-0.7049023381	 1.1710479956	 0.315465
C	 1.3383642576	 0.1140985854	 2.2790364712	-0.449561
C	 0.1534932153	-2.0250820412	 1.6980796358	-0.449572
H	 0.8598538739	 1.9878588683	 0.3206710429	 0.112364
H	-0.2053518966	 1.8534036028	-1.07581025	 0.11133
H	-0.8908893007	 1.9063781473	 0.5512901795	 0.110965
H	-1.3676712968	-0.247731785	-1.6468595911	 0.111343
H	-1.1900608737	-1.7111994675	-0.6826567914	 0.112351
H	-2.1467929592	-0.3589500425	-0.0654645138	 0.110957
H	 1.3507846391	-1.6105835955	-0.7730031176	 0.099054
H	 2.2094031758	-0.0605334754	-0.3521292153	 0.099052
H	 1.8148320835	 1.0260787501	 1.9145821831	 0.11235
H	 0.6021819756	 0.4024509054	 3.0394877492	 0.110958
H	 2.1121500133	-0.4775094599	 2.7828138985	 0.111339
H	 0.9479938228	-2.5781642273	 2.2132550832	 0.111336
H	-0.6534463967	-1.8629872477	 2.4233165696	 0.110962
H	-0.2329913851	-2.6737653898	 0.9097914226	 0.112361
153.2519	165.7007	171.3928	182.8681	204.61	298.292	331.0077	365.9337	394.4886	408.6893	446.2325	476.3631	658.5579	693.2437	874.5546	900.9049	924.1093	952.3807	958.5716	976.8179	1028.7082	1048.2324	1049.1412	1049.9856	1144.723	1160.5663	1232.9353	1234.2342	1307.8677	1388.9132	1406.1302	1414.4167	1416.4071	1431.0941	1475.9412	1484.1584	1489.5758	1491.2234	1495.2659	1497.5781	1503.9274	1514.0981	1526.9205	3018.5589	3021.6547	3022.1837	3028.72	3071.3808	3073.0944	3075.41	3077.1017	3112.41	3113.1013	3115.0957	3130.6577	3132.3464	3197.1192
CC1(C)CC1(C)C	CC1(C)CC1(C)C	
InChI=1S/C7H14/c1-6(2)5-7(6,3)4/h5H2,1-4H3	InChI=1S/C7H14/c1-6(2)5-7(6,3)4/h5H2,1-4H3
