21
gdb 2724	13.60466	0.79277	0.77066	0.8012	72.83	-0.2478	0.0917	0.3396	1554.0921	0.192972	-312.124574	-312.115003	-312.114059	-312.159319	32.65	
C	-0.051405595	 1.5039615082	-0.045335482	-0.381973
C	 0.0173658916	-0.0234978215	 0.0221235404	-0.181303
C	 0.7518399205	-0.5201128128	 1.2599548005	-0.029816
O	 0.7702536461	-1.9303458491	 1.2451809491	-0.24719
C	 1.4310020275	-2.4953593655	 2.3558050751	-0.029816
C	 1.3903590462	-4.0125670956	 2.2344238296	-0.181303
C	 2.0875201186	-4.7130378746	 3.4030637777	-0.381973
H	 0.949713314	 1.9486455497	-0.0704093778	 0.115369
H	-0.5828358084	 1.8344527696	-0.9424147775	 0.116293
H	-0.5757104431	 1.9194065649	 0.8224872152	 0.115371
H	-0.9922193578	-0.4502530808	 0.022565078	 0.105493
H	 0.523386511	-0.4212145142	-0.8650907764	 0.105496
H	 1.782389082	-0.1222407005	 1.2788751342	 0.079337
H	 0.2532373169	-0.1515581056	 2.1744247297	 0.079329
H	 2.4771531301	-2.1429343619	 2.4011098685	 0.07933
H	 0.947417765	-2.1735041644	 3.2956198443	 0.079336
H	 0.3425760975	-4.3282065692	 2.1719136505	 0.105499
H	 1.8588810156	-4.2978817174	 1.28549542	 0.10549
H	 1.6176924115	-4.4585030025	 4.3596644544	 0.115371
H	 2.0443162098	-5.8003389722	 3.2921416677	 0.116293
H	 3.1435808903	-4.4281210745	 3.4675998386	 0.115369
55.814	76.8851	103.351	138.1596	157.8671	232.1565	233.6336	249.0544	317.1692	434.2964	512.088	764.7152	766.3045	896.0401	896.8391	907.5187	923.1057	1003.8087	1048.2703	1063.4063	1123.4895	1163.0921	1171.8123	1181.5732	1205.1305	1266.1057	1274.8801	1314.2227	1316.0393	1327.0431	1340.9751	1405.5919	1412.1612	1413.827	1457.8255	1491.3828	1492.8031	1500.0714	1500.0914	1505.5816	1508.9966	1519.3344	1538.5778	2931.7695	2945.3697	2960.5022	2962.1693	3030.974	3031.259	3038.3305	3038.8777	3070.7249	3070.8697	3098.8737	3099.1068	3107.3469	3107.4706
CCCOCCC	CCCOCCC	
InChI=1S/C6H14O/c1-3-5-7-6-4-2/h3-6H2,1-2H3	InChI=1S/C6H14O/c1-3-5-7-6-4-2/h3-6H2,1-2H3
