14
gdb 530	17.75615	1.40782	1.33715	1.0683	56.07	-0.2584	0.0547	0.3131	867.686	0.117433	-270.387395	-270.379973	-270.379028	-270.418719	25.054	
C	-0.0334287103	 1.3813168619	-0.0170858592	-0.229673
O	 0.0035286868	-0.0258796685	 0.0024812997	-0.227698
C	 0.6747295492	-0.5411147655	 1.1280649355	-0.04552
C	 0.6418388554	-2.0697903184	 1.0260886727	-0.348643
C	 1.313134644	-2.7129833678	 2.1471218347	 0.287661
C	 1.8728650248	-3.2177225702	 3.0831923345	-0.450022
H	 0.9782192941	 1.8163291523	-0.0423377931	 0.10588
H	-0.5696771578	 1.6816135632	-0.9204168347	 0.128861
H	-0.5591285951	 1.7885042295	 0.8610617466	 0.105882
H	 1.7180390854	-0.1874471507	 1.1618786924	 0.098431
H	 0.1884211038	-0.2145502525	 2.0616457144	 0.098423
H	-0.404218492	-2.3937675852	 0.9711951151	 0.140248
H	 1.1097566072	-2.3669524507	 0.0800726205	 0.140252
H	 2.3640385945	-3.6768420575	 3.904727771	 0.195917
88.0361	108.0394	125.4642	227.4212	290.9638	355.5505	419.8704	520.5016	621.4852	647.1444	797.049	955.5082	1006.6004	1057.1039	1089.407	1163.8894	1182.0677	1226.5081	1233.1142	1298.9935	1310.1275	1418.4616	1476.3201	1481.1161	1484.9908	1504.591	1532.1301	2242.0583	2962.7042	2975.4583	2996.873	3015.7038	3035.212	3072.4911	3115.6192	3508.7276
COCCC#C	COCCC#C	
InChI=1S/C5H8O/c1-3-4-5-6-2/h1H,4-5H2,2H3	InChI=1S/C5H8O/c1-3-4-5-6-2/h1H,4-5H2,2H3
