18
gdb 2690	16.65765	0.84381	0.81949	2.8736	69.95	-0.2451	0.0279	0.273	1428.98	0.157851	-326.977685	-326.968614	-326.967669	-327.012319	30.143	
C	 0.017879196	 1.499558217	 0.0521338957	-0.385675
C	-0.0443439815	-0.0251941651	-0.0680709623	-0.182522
C	 0.7667871912	-0.5414039825	-1.2462796051	-0.054436
O	 0.6486122838	-1.9655562466	-1.2765384239	-0.205594
C	 1.3123463986	-2.5918525246	-2.2667891008	 0.132659
N	 1.2710185432	-3.8437515788	-2.3795731968	-0.205018
C	 2.0127038209	-4.43713237	-3.4712872374	-0.313748
H	 1.0464591387	 1.8485040729	 0.195478809	 0.118612
H	-0.3764322736	 1.9886335389	-0.8454241286	 0.118617
H	-0.5716043605	 1.8474215445	 0.9047762492	 0.123036
H	 0.3317649381	-0.4965721382	 0.8466877754	 0.115848
H	-1.0815882783	-0.3573722881	-0.1873143819	 0.115859
H	 0.3942816693	-0.1145542243	-2.188713919	 0.103922
H	 1.8235112871	-0.2553433494	-1.143085961	 0.103912
H	 1.8717312554	-1.9201316498	-2.9389402668	 0.06846
H	 1.3312725027	-5.0086066329	-4.1121252133	 0.126475
H	 2.5472983637	-3.7067518778	-4.1017109244	 0.093115
H	 2.7461302553	-5.1487753552	-3.0747343981	 0.126478
29.8176	69.1763	115.4101	142.6999	206.3138	228.9568	275.5458	309.7273	347.1952	461.1341	619.0363	764.4886	899.0722	911.6959	984.3416	1023.5993	1054.648	1073.7362	1141.1703	1148.32	1158.0763	1188.1639	1255.7392	1270.0597	1321.9051	1335.8927	1397.9773	1414.4497	1437.6012	1451.1592	1480.2909	1492.4576	1500.4665	1505.199	1507.2186	1523.5302	1781.7393	2961.0755	2975.1559	2994.2001	3028.0011	3033.4227	3045.1867	3055.0954	3074.6483	3077.9873	3103.3672	3112.529
CCCOC=NC	CCCOC=NC	
InChI=1S/C5H11NO/c1-3-4-7-5-6-2/h5H,3-4H2,1-2H3	InChI=1S/C5H11NO/c1-3-4-7-5-6-2/h5H,3-4H2,1-2H3
