15
gdb 3057	9.35639	1.09174	1.02314	1.6154	65.95	-0.2447	0.056	0.3007	1137.7367	0.123188	-308.470648	-308.462581	-308.461637	-308.504711	26.91	
C	-0.0199780876	 1.4272174971	 0.1824271605	-0.496101
C	-0.0115329155	-0.0136367052	-0.0260179357	 0.077599
C	 0.0030394178	-1.2056727666	-0.1918522056	 0.057425
C	-0.0126598154	-2.6510190788	-0.3956623023	-0.376745
C	-1.3863722806	-3.2635137489	-0.1799527758	 0.112068
C	-1.5448479681	-4.6500951704	 0.2715042578	-0.18192
O	-1.7556589456	-3.5543219752	 1.1650650919	-0.224884
H	 0.6860515731	 1.7194768373	 0.967604289	 0.148246
H	 0.2579223376	 1.9658518086	-0.7303576788	 0.145383
H	-1.0129036836	 1.7780987926	 0.4846752121	 0.149167
H	 0.3179053414	-2.8874519157	-1.4167816055	 0.12875
H	 0.6942798994	-3.1407600369	 0.2853059206	 0.132733
H	-2.1842369769	-2.8186771552	-0.7754853672	 0.10034
H	-2.4359564961	-5.213067107	-0.0022523849	 0.115348
H	-0.6602169199	-5.253358486	 0.473832714	 0.11259
21.4763	61.8189	103.4555	209.0249	263.5743	354.4601	381.3967	384.7466	509.0874	765.6155	791.4109	860.6415	938.7743	959.8255	1052.0454	1054.1977	1095.1419	1108.4483	1157.6684	1166.2768	1171.7187	1245.6974	1293.7671	1322.1702	1415.4807	1438.9762	1455.7262	1478.8079	1479.2102	1531.1533	2377.2038	3011.5724	3026.7073	3053.3195	3081.297	3086.7062	3087.7838	3109.75	3167.2203
CC#CCC1CO1	CC#CC[C@H]1CO1	
InChI=1S/C6H8O/c1-2-3-4-6-5-7-6/h6H,4-5H2,1H3	InChI=1S/C6H8O/c1-2-3-4-6-5-7-6/h6H,4-5H2,1H3/t6-/m0/s1
