16
gdb 1169	4.00867	1.86804	1.75871	4.8411	60.78	-0.25	0.0323	0.2824	796.8074	0.136974	-321.958604	-321.950266	-321.949322	-321.990496	30.27	
C	-0.0340639598	 1.5633774079	-0.0112103699	-0.395492
C	 0.024113381	 0.023725278	 0.0353961285	 0.105431
N	 0.837732621	-0.37252259	 1.1944564582	-0.528277
C	-1.416079344	-0.5798276685	 0.0751386336	-0.177891
N	-2.0805358694	-0.1898640192	 1.3184729825	-0.518941
C	 0.6774502035	-0.4730020124	-1.1886084109	 0.284436
N	 1.1541647897	-0.8811484248	-2.1588376342	-0.339633
H	 0.9753120623	 1.9733690365	-0.0677670282	 0.147661
H	-0.613603433	 1.9135622922	-0.8700529975	 0.123444
H	-0.5004377268	 1.9312345551	 0.90720633	 0.124946
H	 0.2409797027	-0.2445989677	 2.0110946166	 0.24223
H	 1.0407835395	-1.3678371167	 1.1443279022	 0.232312
H	-1.9593192953	-0.2879957367	-0.8360912679	 0.105158
H	-1.3222759605	-1.6701247019	 0.0588689765	 0.114482
H	-2.5716910009	 0.6901401786	 1.2081083003	 0.238963
H	-2.7749522	-0.8789591804	 1.5811555802	 0.241173
127.9064	157.1446	195.8761	209.1935	274.313	279.7605	312.5193	355.9743	397.0228	492.1646	564.3857	588.4433	725.7714	829.7387	882.3031	927.7743	930.5389	983.7998	1049.0631	1084.2628	1148.8585	1172.8809	1252.0515	1339.6309	1354.4143	1395.5023	1417.0158	1485.1607	1490.6848	1502.9366	1658.9682	1663.6831	2358.2958	2990.3403	3048.7466	3079.3176	3122.2794	3145.5385	3461.8677	3522.7535	3545.9132	3599.6667
CC(N)(CN)C#N	C[C@@](N)(CN)C#N	
InChI=1S/C4H9N3/c1-4(7,2-5)3-6/h2,5,7H2,1H3	InChI=1S/C4H9N3/c1-4(7,2-5)3-6/h2,5,7H2,1H3/t4-/m1/s1
