16
gdb 3463	5.36036	2.5933	2.572	1.0079	64.82	-0.2051	0.0132	0.2183	625.5764	0.13799	-288.573475	-288.567659	-288.566715	-288.602557	23.725	
C	-0.2168620637	 1.4693210125	-0.004414943	-0.328238
N	 0.0240654218	 0.0322615011	 0.0404634155	-0.086839
C	 1.190876898	-0.4866012782	-0.7994713142	-0.048949
C	 2.1727124857	-0.0272492379	 0.3276669562	-0.222721
C	 0.9286663564	-0.4691885858	 1.1658100095	-0.048949
C	 0.8882235447	-1.9687049236	 0.8469429445	-0.063565
C	 1.0647673223	-1.9804288743	-0.4763045629	-0.063565
H	 0.6625110425	 2.1260048221	 0.1071023951	 0.090914
H	-0.6936483776	 1.7113306037	-0.9606792544	 0.1193
H	-0.9271139967	 1.7268317906	 0.7890367034	 0.1193
H	 1.263659981	-0.1609880331	-1.8373026165	 0.065544
H	 3.1045702368	-0.5829808828	 0.4569208351	 0.095548
H	 2.3646418568	 1.0476446427	 0.343751053	 0.100274
H	 0.7275870092	-0.125389078	 2.1805928169	 0.065545
H	 0.7264731181	-2.7748689905	 1.5469428045	 0.103199
H	 1.090305485	-2.7990303985	-1.1800820926	 0.103199
199.9977	294.6887	309.396	480.1014	528.8115	554.2201	661.8162	721.1669	787.0057	825.6806	828.6129	885.4996	908.2221	914.3597	931.4529	991.2158	1028.8707	1076.5384	1110.8553	1135.245	1138.2645	1171.4183	1183.7568	1224.221	1243.1642	1259.1934	1279.5641	1323.389	1442.6736	1477.5763	1501.1863	1517.9996	1620.7276	2956.3586	3052.6497	3065.4921	3090.2821	3117.6278	3119.952	3125.6978	3229.2431	3256.2513
CN1C2CC1C=C2	CN1[C@H]2C[C@@H]1C=C2	
InChI=1S/C6H9N/c1-7-5-2-3-6(7)4-5/h2-3,5-6H,4H2,1H3	InChI=1S/C6H9N/c1-7-5-2-3-6(7)4-5/h2-3,5-6H,4H2,1H3/t5-,6+
