16
gdb 3244	7.5694	1.5801	1.43638	1.67	61.32	-0.2354	0.0935	0.3289	859.7628	0.136686	-325.714161	-325.707257	-325.706313	-325.745466	24.984	
C	-0.0054875408	 1.4961557506	 0.4583829186	-0.177206
C	 0.0427808417	 0.0262889143	 0.1256452916	 0.105891
C	-1.1505235866	-0.7043031646	-0.3142229807	-0.181143
O	-0.1435259496	-0.3207646227	-1.2514131697	-0.232611
N	 1.2927597866	 2.1135003926	 0.2182560596	-0.068903
C	 1.5444688452	 2.549485311	-1.1538114895	-0.209967
C	 1.2833789519	 3.5428110542	-0.0760759061	-0.224036
H	-0.8161559791	 1.96423354	-0.1285555054	 0.085075
H	-0.2496195232	 1.6207112788	 1.5214698318	 0.107021
H	 0.8407588609	-0.5295878893	 0.6182389389	 0.102244
H	-1.2317153213	-1.7731016156	-0.1221430055	 0.115895
H	-2.1001525044	-0.1780363075	-0.4070432259	 0.111507
H	 2.5537798465	 2.386753118	-1.5199921385	 0.11745
H	 0.7600481087	 2.3823723062	-1.8882070219	 0.12413
H	 0.3220550994	 4.0546097828	-0.092009611	 0.107699
H	 2.0966243142	 4.1185660514	 0.3563578437	 0.116953
88.3767	92.9132	181.7757	335.6321	375.7147	399.8419	502.3501	766.0682	797.4073	834.8751	867.4057	896.7002	956.1261	986.418	1032.1258	1046.2184	1099.349	1111.8868	1119.086	1135.2477	1158.642	1167.9466	1173.4921	1201.88	1282.989	1293.0555	1322.3392	1356.3437	1451.8118	1476.9526	1495.275	1523.9688	1532.6637	2944.2062	3040.9585	3081.9907	3094.9573	3110.7531	3116.248	3167.6014	3179.8995	3198.785
C(C1CO1)N1CC1	C([C@H]1CO1)N1CC1	
InChI=1S/C5H9NO/c1-2-6(1)3-5-4-7-5/h5H,1-4H2	InChI=1S/C5H9NO/c1-2-6(1)3-5-4-7-5/h5H,1-4H2/t5-/m0/s1
