15
gdb 285	4.90809	2.61486	2.52356	3.4399	53.35	-0.2409	0.0371	0.278	617.1359	0.130071	-287.737498	-287.729645	-287.728701	-287.770224	26.737	
C	-0.3327031388	 1.6233899716	-0.1853019356	-0.377794
C	 0.0520916725	 0.1427675437	-0.0382265026	-0.067435
C	-1.1808324113	-0.7288210807	 0.2457236849	-0.377818
C	 0.712610369	-0.3316870936	-1.3373863678	 0.41898
N	 2.0068850088	-0.7488151388	-1.223386191	-0.524831
O	 0.1207350573	-0.3338696943	-2.400527329	-0.378654
H	 0.5487156564	 2.2546363447	-0.3371233227	 0.113069
H	-0.9921229967	 1.7501384004	-1.0480899719	 0.142673
H	-0.8539361624	 1.9758879366	 0.7100121076	 0.109893
H	 0.7615625892	 0.0399120179	 0.7930531793	 0.06077
H	-1.86604356	-0.6874785422	-0.6051502737	 0.142993
H	-0.9044021387	-1.7756827265	 0.4070397369	 0.113166
H	-1.7055644984	-0.3737129243	 1.1379810712	 0.109327
H	 2.4996397362	-0.7487716032	-0.3487018557	 0.256977
H	 2.4830369469	-1.0658908411	-2.0523227898	 0.258684
16.9788	115.049	214.0705	238.7985	239.5954	287.8886	323.1366	473.5465	596.7364	612.2749	752.7056	777.6957	913.3038	931.278	974.849	1056.2819	1119.3541	1132.3987	1196.2924	1281.4644	1335.6217	1390.9016	1398.6737	1418.8605	1484.5322	1492.3875	1499.6102	1514.9667	1614.7655	1793.5082	3017.1216	3036.2145	3039.6185	3103.3937	3106.046	3122.2833	3127.0072	3602.1188	3743.4241
CC(C)C(N)=O	CC(C)C(=O)N	
InChI=1S/C4H9NO/c1-3(2)4(5)6/h3H,1-2H3,(H2,5,6)	InChI=1S/C4H9NO/c1-3(2)4(5)6/h3H,1-2H3,(H2,5,6)
