12
gdb 438	7.38256	3.60727	2.49744	2.5958	50.91	-0.2409	-0.0164	0.2245	502.2039	0.096841	-269.263802	-269.258575	-269.257631	-269.292553	19.177	
O	 0.0016497686	 0.0301139007	 0.0037714671	-0.299298
C	-0.0146585345	 1.2320052896	 0.0105960788	 0.393968
C	-1.2726770102	 2.1189202244	 0.0322430755	-0.359595
C	-0.7129261547	 3.5153294019	 0.0320766807	-0.064401
C	 0.6213878719	 3.5335349606	 0.0143897809	-0.064401
C	 1.2188296235	 2.1529147442	-0.0008045001	-0.359595
H	-1.9039190034	 1.8935071374	-0.8371700466	 0.137489
H	-1.8801951928	 1.8842760655	 0.9160060631	 0.137493
H	-1.344476331	 4.3960763445	 0.0451031844	 0.101679
H	 1.2288010225	 4.4311864587	 0.0109921962	 0.101679
H	 1.8557516915	 1.9352451172	 0.8664450952	 0.137493
H	 1.8327009187	 1.9444950455	-0.8867399053	 0.13749
86.827	379.6017	464.8237	468.5878	615.713	686.476	771.3344	773.0348	821.7183	966.6469	981.8745	986.559	1006.7241	1122.5417	1127.5111	1133.8487	1185.1692	1277.1354	1290.2467	1379.6624	1439.7077	1444.0741	1681.7856	1854.9698	3025.779	3028.7097	3053.5293	3054.7204	3187.9691	3211.2229
O=C1CC=CC1	O=C1CC=CC1	
InChI=1S/C5H6O/c6-5-3-1-2-4-5/h1-2H,3-4H2	InChI=1S/C5H6O/c6-5-3-1-2-4-5/h1-2H,3-4H2
