13
gdb 3620	4.75686	3.8272	3.02601	2.1074	51.73	-0.2181	0.074	0.2921	507.0227	0.10356	-344.39515	-344.390394	-344.38945	-344.423409	19.179	
C	-0.01172231	 1.5356014938	 0.0517804961	-0.072164
O	 1.3598680332	 1.9559793046	 0.0145485777	-0.263422
C	 2.1180890688	 0.8619869369	-0.4413552323	 0.08639
C	 2.0114600261	-0.4438486586	 0.3306497758	 0.063461
O	 0.8365698021	-0.420538495	 1.1402928949	-0.298471
C	 0.0680364175	 0.0187529358	-0.0261123592	 0.05984
C	 1.2651339767	-0.2541897057	-0.9692475181	-0.203274
H	-0.4565582624	 1.8727596805	 0.992489913	 0.122306
H	-0.5724562775	 1.9630223565	-0.7941635054	 0.094046
H	 3.0541700252	 1.1401260832	-0.9100339622	 0.110515
H	 2.8294869889	-1.0904710652	 0.6268617299	 0.107072
H	-0.8690173423	-0.5262252893	-0.1416174693	 0.091051
H	 1.2807142437	-0.7375818874	-1.9359054808	 0.10265
257.9325	403.9956	550.2489	688.4298	731.1494	775.1273	796.7364	828.5289	857.4612	905.57	925.4478	991.6718	1004.2568	1026.4836	1034.5284	1051.4616	1082.6858	1106.7716	1126.9828	1199.9898	1216.8706	1255.3207	1270.5587	1317.073	1364.1893	1409.0239	1497.9686	2986.4246	3089.6325	3119.2265	3179.6028	3195.6672	3210.4952
C1OC2C3OC1C23	C1O[C@H]2[C@H]3O[C@@H]1[C@@H]23	
InChI=1S/C5H6O2/c1-2-3-4(6-1)5(3)7-2/h2-5H,1H2	InChI=1S/C5H6O2/c1-2-3-4(6-1)5(3)7-2/h2-5H,1H2/t2-,3-,4+,5-/m0/s1
