6
gdb 26	68.5171	4.8345	4.51586	2.7824	31.14	-0.2777	-0.0735	0.2042	268.3921	0.037208	-190.624631	-190.620363	-190.619419	-190.650543	13.049	
O	-0.0677611954	-0.0423383835	 0.0028248878	-0.217695
C	-0.0056294518	 1.1638287916	 0.0074386245	 0.042515
C	 1.2298527186	 1.9133999686	 0.0002878123	 0.233835
C	 2.2362532244	 2.5743097025	-0.0052927696	-0.391468
H	-0.9167070054	 1.7946754562	 0.0178135153	 0.108001
H	 3.1342966196	 3.1437026746	-0.0103765604	 0.224812
217.3433	285.6208	633.9564	658.55	720.745	958.2141	1021.5063	1421.7905	1776.8148	2212.9179	2930.7151	3494.1862
O=CC#C	O=CC#C	
InChI=1S/C3H2O/c1-2-3-4/h1,3H	InChI=1S/C3H2O/c1-2-3-4/h1,3H
