13
gdb 1225	7.79293	1.27363	1.17628	2.8437	52.07	-0.2651	-0.0361	0.229	965.2519	0.098284	-381.63248	-381.624442	-381.623498	-381.666952	25.619	
C	-0.1149262586	 1.4324401099	 0.1174247366	-0.479521
C	-0.0174055881	-0.0691493403	 0.1971447505	 0.433717
O	 0.8101663806	-0.6922612088	 0.8072105289	-0.335281
O	-1.0111738177	-0.6431146914	-0.5362999983	-0.242017
C	-1.0550362759	-2.0706709053	-0.5703389254	-0.170751
C	-2.3567854024	-2.5554257335	 0.0414243032	 0.146095
O	-2.826030924	-3.6397280846	-0.1745958488	-0.227114
H	 0.6538111247	 1.8800799673	 0.7455647203	 0.154008
H	 0.0151115718	 1.756806283	-0.919104778	 0.156984
H	-1.1061640616	 1.7631154543	 0.4388617315	 0.154165
H	-0.9836637857	-2.4036363763	-1.6091272859	 0.146673
H	-0.2128494954	-2.479172953	-0.0002682349	 0.172758
H	-2.8368305777	-1.8192611013	 0.7249922203	 0.090284
23.777	62.3978	82.1425	107.2119	277.0167	348.4676	374.4235	538.4483	603.7576	633.6212	750.0376	874.1996	998.1804	1048.3778	1064.769	1085.7152	1119.6816	1237.2161	1266.7637	1348.6872	1395.2739	1411.2565	1455.1684	1468.1442	1475.0631	1837.0004	1844.9996	2886.2791	3052.3685	3059.4826	3113.6969	3124.7696	3173.1808
CC(=O)OCC=O	CC(=O)OCC=O	
InChI=1S/C4H6O3/c1-4(6)7-3-2-5/h2H,3H2,1H3	InChI=1S/C4H6O3/c1-4(6)7-3-2-5/h2H,3H2,1H3
