19
gdb 1579	6.30058	1.24169	1.10631	0.1877	65.34	-0.2495	0.089	0.3385	1112.8529	0.168729	-348.034975	-348.025608	-348.024664	-348.06935	31.597	
C	-0.2491547013	 1.5342764392	 0.594393341	-0.223883
O	-0.317570502	 0.1541619698	 0.8579921309	-0.23426
C	 0.7661055371	-0.5638085495	 0.3125571789	-0.067398
C	 0.5820697655	-2.0447204017	 0.6399295254	 0.120556
C	-0.6938237173	-2.6145600752	 0.0199979435	-0.399642
O	 1.7596723615	-2.6764287764	 0.1594745438	-0.249119
C	 1.9901741508	-3.9648800214	 0.6772673435	-0.233624
H	-0.260570974	 1.7449843867	-0.4868598891	 0.104534
H	-1.124115551	 2.0001434604	 1.0544480231	 0.12569
H	 0.6602442698	 1.9869041808	 1.0205184292	 0.10449
H	 0.8171820046	-0.4320056457	-0.7816695442	 0.090441
H	 1.7234845474	-0.2175642439	 0.7325711765	 0.091786
H	 0.5301575791	-2.1441276891	 1.737148742	 0.071351
H	-0.8660720792	-3.6508894876	 0.3235478288	 0.111169
H	-1.5522607059	-2.0176941096	 0.3373217086	 0.135802
H	-0.6267010752	-2.5806707767	-1.0725873959	 0.116992
H	 1.2357647162	-4.6952712007	 0.3507726723	 0.107162
H	 2.9664609296	-4.2897137695	 0.308180943	 0.125474
H	 2.0117442642	-3.9621598399	 1.7786953088	 0.102479
57.6384	92.9604	93.4563	158.3029	195.2294	221.309	241.4838	314.0804	345.3372	393.7731	464.9743	536.9992	841.8511	928.3734	935.3852	994.3705	1082.5255	1127.581	1151.1608	1169.0631	1175.4093	1182.6436	1196.8857	1220.9715	1239.2051	1260.2322	1346.0703	1380.3311	1400.5429	1422.2338	1477.1818	1481.2194	1483.9105	1485.8217	1494.2629	1500.4154	1504.9623	1512.9998	1528.2269	2957.7148	2965.1899	2973.502	2976.5201	3004.1139	3013.9092	3024.8956	3042.7732	3108.5486	3112.6315	3113.011	3131.2135
COCC(C)OC	COC[C@@H](C)OC	
InChI=1S/C5H12O2/c1-5(7-3)4-6-2/h5H,4H2,1-3H3	InChI=1S/C5H12O2/c1-5(7-3)4-6-2/h5H,4H2,1-3H3/t5-/m1/s1
