10
gdb 3645	9.68151	1.98315	1.64599	2.8953	56.53	-0.2637	-0.0382	0.2255	681.1504	0.066972	-322.133444	-322.127893	-322.126949	-322.162707	20.365	
C	 0.0212975624	-1.1916943387	-0.0041184591	-0.392955
C	-0.0110251765	 0.0100471347	 0.0029331347	 0.26138
C	-0.0016392373	 1.4277350116	 0.0106830304	 0.244011
N	-1.1299558322	 2.1182112477	 0.0290033194	-0.194526
O	-0.7487281368	 3.4466842379	 0.0314809899	-0.151672
C	 0.5907517674	 3.527926971	 0.0148110732	 0.069409
C	 1.1389108588	 2.2898759594	 0.0009586313	-0.333686
H	 0.0334164952	-2.2535864388	-0.0101285946	 0.204039
H	 1.0015696982	 4.5253735291	 0.0151015162	 0.158662
H	 2.1780122108	 2.0105868259	-0.0138429214	 0.135338
167.6065	174.7112	453.4156	524.4975	586.6325	613.5521	626.4406	670.8655	725.8401	803.5139	872.7998	918.6727	959.3698	1005.4644	1077.4121	1153.8881	1288.5928	1409.5341	1461.8506	1583.958	2247.6427	3268.3195	3297.8661	3504.65
C#CC1=NOC=C1	C#Cc1nocc1	
InChI=1S/C5H3NO/c1-2-5-3-4-7-6-5/h1,3-4H	InChI=1S/C5H3NO/c1-2-5-3-4-7-6-5/h1,3-4H
