16
gdb 1549	5.65588	1.37448	1.1651	3.797	62.02	-0.2737	0.036	0.3096	1004.2344	0.135337	-325.785476	-325.777074	-325.77613	-325.818433	28.484	
C	-0.0261036933	 1.3785754924	 0.020730767	-0.23377
O	 0.0058577752	-0.0308855224	-0.0177500202	-0.23516
C	 0.6392605064	-0.5349638384	-1.1673034913	-0.05124
C	 0.5709901888	-2.0706669043	-1.0920125619	-0.149264
C	-0.8782893859	-2.5912103393	-1.1011294638	-0.388795
C	 1.3519332474	-2.6502084814	-2.187793567	 0.256113
N	 1.9610344767	-3.098387979	-3.061770024	-0.319728
H	 0.9874015237	 1.8079833417	 0.0201499228	 0.112197
H	-0.5783637781	 1.7958768958	-0.8351224678	 0.111715
H	-0.5325610276	 1.6661837673	 0.9446158217	 0.134072
H	 0.1383241236	-0.1826286212	-2.0843853493	 0.104229
H	 1.6891690832	-0.2055370473	-1.2162779991	 0.108196
H	 1.0503254472	-2.3678364796	-0.1510938829	 0.137802
H	-1.3724136858	-2.3402886112	-2.0442568992	 0.133029
H	-0.9040205529	-3.6763896101	-0.9789712968	 0.134843
H	-1.4283423085	-2.124950803	-0.2822741383	 0.14576
86.2425	100.8759	134.2049	211.4917	216.5231	232.6763	310.9836	344.952	436.3736	551.2908	570.3928	829.3639	933.1404	938.84	994.6516	1082.7365	1122.7091	1159.0556	1167.2196	1191.8161	1227.9701	1264.3628	1310.2838	1341.5459	1400.2067	1423.2848	1480.6418	1485.8723	1493.191	1500.4588	1503.7047	1528.4505	2359.0087	2963.847	2980.7082	3000.7764	3026.9104	3044.7701	3054.8684	3122.4925	3127.4363	3149.7398
COCC(C)C#N	COC[C@@H](C)C#N	
InChI=1S/C5H9NO/c1-5(3-6)4-7-2/h5H,4H2,1-2H3	InChI=1S/C5H9NO/c1-5(3-6)4-7-2/h5H,4H2,1-2H3/t5-/m0/s1
