13
gdb 4588	5.96647	1.58564	1.25437	3.6957	64.07	-0.2121	-0.037	0.1751	892.0576	0.098345	-394.842058	-394.83549	-394.834546	-394.87258	25.15	
N	 0.0172023272	 1.4074566961	 0.1861519895	-0.596999
C	 0.0076046038	 0.0156449251	 0.0481096357	 0.235446
C	-1.175406627	-0.7327766928	 0.0534069287	-0.03485
N	-1.2030668934	-2.0602077526	-0.0111013404	-0.283031
C	-0.0203865959	-2.6620265364	-0.0818656578	 0.440373
O	-0.0465975416	-4.0068937723	-0.1439693193	-0.399172
N	 1.1747076388	-2.071965744	-0.1011440584	-0.340452
C	 1.1782438699	-0.7419078013	-0.0359923873	-0.038186
H	 0.8333795004	 1.8561900816	-0.2065689865	 0.250071
H	-0.8250759279	 1.8598793512	-0.1419665893	 0.250902
H	-2.1404637817	-0.2302398511	 0.1123761016	 0.107601
H	 0.8761275124	-4.2892234989	-0.1904126528	 0.302104
H	 2.1525854652	-0.2553171546	-0.0509073237	 0.106191
132.6981	219.2237	324.5695	383.8016	431.3051	470.923	518.0294	519.5834	551.7867	655.6156	670.1802	807.113	819.3144	896.8386	943.8553	970.2049	1048.3883	1100.0627	1195.2841	1279.3079	1321.9261	1360.4347	1387.9465	1469.2163	1510.0655	1613.0371	1648.5023	1662.9922	3132.2888	3137.2756	3550.247	3643.455	3793.0228
NC1=CN=C(O)N=C1	Nc1cnc(O)nc1	
InChI=1S/C4H5N3O/c5-3-1-6-4(8)7-2-3/h1-2H,5H2,(H,6,7,8)	InChI=1S/C4H5N3O/c5-3-1-6-4(8)7-2-3/h1-2H,5H2,(H,6,7,8)
