16
gdb 1619	3.66299	2.13966	1.43516	4.0257	60.87	-0.2381	0.0205	0.2587	839.9784	0.136902	-321.958301	-321.949936	-321.948992	-321.990593	30.065	
C	 0.0298767451	 1.5508873273	 0.0699273781	-0.395814
C	 0.0180449075	 0.0225231825	 0.0318599716	 0.035482
N	 0.7701733442	-0.4918072572	 1.171130381	-0.507676
C	-1.4523865749	-0.5182084045	-0.0635423059	-0.131096
N	-2.234135339	-0.1301900024	-1.2380348741	-0.503593
C	-1.4242339998	-1.9889760912	 0.0188005328	 0.292665
N	-1.3440204518	-3.1405529211	 0.0766719306	-0.325568
H	 1.0607043967	 1.9079613349	 0.1194142322	 0.140621
H	-0.4433077708	 1.98726878	-0.81371118	 0.110363
H	-0.4983667194	 1.9229993385	 0.9570747645	 0.114034
H	 0.535493409	-0.31425746	-0.8770072349	 0.092483
H	 0.3295806943	-0.2118237305	 2.043819511	 0.225216
H	 0.7880296081	-1.5075549159	 1.1621728163	 0.247329
H	-1.9928014948	-0.1592934417	 0.8236486541	 0.122898
H	-2.372672323	 0.874190524	-1.2419361262	 0.241577
H	-1.7345093114	-0.3714379127	-2.0892939711	 0.241079
74.5766	153.8143	208.659	220.3685	265.9256	294.4505	302.6337	376.9667	412.36	459.1512	553.0052	603.7961	798.5417	841.6467	868.8756	911.3494	960.7428	1014.8562	1097.593	1111.026	1162.1315	1188.7945	1243.6742	1293.8162	1358.1509	1393.8082	1398.9808	1416.7753	1491.0339	1497.9939	1654.8958	1661.5334	2355.6129	3009.8776	3024.5211	3032.2108	3102.3254	3132.5005	3483.1536	3500.1519	3567.3134	3593.3712
CC(N)C(N)C#N	C[C@@H](N)[C@@H](N)C#N	
InChI=1S/C4H9N3/c1-3(6)4(7)2-5/h3-4H,6-7H2,1H3	InChI=1S/C4H9N3/c1-3(6)4(7)2-5/h3-4H,6-7H2,1H3/t3-,4+/m1/s1
