13
gdb 4525	3.67779	1.79209	1.21111	2.6128	57.68	-0.1699	0.0466	0.2166	915.5449	0.094434	-435.744657	-435.736564	-435.73562	-435.776878	29.128	
N	 0.1023987943	 1.3551405665	-0.1397786035	-0.591691
C	-0.0550502117	-0.0232669887	-0.0602708349	 0.398597
C	-1.1433578991	-0.843510211	-0.0797958661	-0.41095
C	-0.6117690092	-2.1844574307	-0.0828578729	 0.220958
O	-1.3021253657	-3.3592655635	-0.1109038218	-0.446237
C	 0.7394397313	-2.0797694034	-0.060435677	 0.238231
O	 1.740183595	-2.9739712648	 0.0483265024	-0.417568
O	 1.0921058331	-0.7348815708	-0.045595773	-0.19359
H	 0.9115714296	 1.6790787948	 0.3763349886	 0.255738
H	-0.7256736405	 1.855492073	 0.1532107421	 0.253265
H	-2.181205713	-0.5490509547	-0.0965795675	 0.09134
H	-2.2394232965	-3.1616446593	-0.0345941526	 0.297967
H	 2.1294794525	-3.1410812875	-0.8195369538	 0.303939
115.9481	159.0263	199.6337	225.1781	259.2819	288.2097	314.3902	369.2558	543.8857	606.5703	626.5698	666.402	671.6031	683.2946	743.9156	837.2177	1014.9027	1083.0779	1105.9868	1197.1837	1211.1177	1253.0697	1352.872	1394.8845	1466.3535	1618.5282	1669.4458	1763.0193	3246.2045	3537.5247	3639.8283	3735.7257	3851.4102
NC1=CC(O)=C(O)O1	Nc1cc(O)c(O)o1	
InChI=1S/C4H5NO3/c5-3-1-2(6)4(7)8-3/h1,6-7H,5H2	InChI=1S/C4H5NO3/c5-3-1-2(6)4(7)8-3/h1,6-7H,5H2
