9
gdb 929	6.22215	3.02768	2.03665	3.3389	45.97	-0.2954	-0.0947	0.2008	554.5818	0.05672	-375.420808	-375.415714	-375.41477	-375.449982	17.728	
O	-0.04330541	-0.026212695	 0.0036356986	-0.301948
C	 0.0503339782	 1.1567185358	 0.0085542145	 0.468883
O	-1.1950842087	 1.9007652371	 0.0290788001	-0.185726
C	-1.1544357062	 3.2208291796	 0.0352820915	 0.175442
N	-0.0904958626	 3.9471879427	 0.0246247636	-0.275407
C	 1.0729615339	 3.2112714872	 0.0050679933	 0.096373
N	 1.1957955979	 1.9213327756	-0.0030990721	-0.295982
H	-2.1453555434	 3.6700614522	 0.0509103991	 0.166698
H	 1.9895876208	 3.7980616346	-0.0041449085	 0.151667
97.6634	331.5201	509.7692	518.8487	560.0809	629.2329	727.2332	811.2858	926.2591	991.4298	1000.9858	1049.9036	1164.9494	1264.1453	1409.0995	1424.6295	1552.241	1673.9458	1915.5715	3163.5749	3174.7188
O=C1OC=NC=N1	O=c1ocncn1	
InChI=1S/C3H2N2O2/c6-3-5-1-4-2-7-3/h1-2H	InChI=1S/C3H2N2O2/c6-3-5-1-4-2-7-3/h1-2H
