15
gdb 2041	4.48153	2.55077	2.2725	1.8127	56.28	-0.2542	0.0708	0.325	647.2123	0.123495	-345.61222	-345.60548	-345.604536	-345.642279	25.975	
C	-0.0520053903	 1.5562844329	 0.0598025198	-0.45741
C	 0.0172185258	 0.0402042197	-0.0005939919	 0.39158
O	-1.2567038862	-0.5542829353	-0.168931812	-0.480766
C	 1.1145133544	-0.6051893642	-0.9449872295	-0.312005
C	 1.714487689	-1.2734616132	 0.2964095958	 0.038182
O	 2.0609451143	-0.2225468133	 1.2119700102	-0.249917
C	 0.7063393207	-0.6762052082	 1.1812866418	 0.004562
H	 0.9275531758	 1.9692568241	 0.3117732848	 0.13998
H	-0.3571922783	 1.9713329706	-0.9090458362	 0.105642
H	-0.7793218144	 1.8747108621	 0.8132317667	 0.122466
H	-1.6665359887	-0.1635310921	-0.9480871169	 0.278915
H	 0.6456449725	-1.3142273414	-1.6309360838	 0.107877
H	 1.7842686184	 0.0681232988	-1.4861875738	 0.102224
H	 2.2652717092	-2.2025826383	 0.3819834058	 0.104513
H	 0.2548711378	-1.0216579721	 2.1043061492	 0.104158
173.9098	243.9689	268.0827	274.1564	361.0631	406.7211	444.7366	531.4046	646.0839	797.5523	827.3891	861.0255	873.9377	922.4479	960.1467	983.5631	989.1897	1046.2036	1100.6458	1119.9659	1174.865	1218.4827	1228.9915	1248.2762	1261.4463	1382.6163	1386.9028	1404.4319	1458.5869	1488.0027	1498.2608	3025.2843	3062.0108	3093.0371	3127.0872	3130.5461	3182.0806	3197.5176	3807.3208
CC1(O)CC2OC12	C[C@@]1(O)C[C@H]2O[C@@H]12	
InChI=1S/C5H8O2/c1-5(6)2-3-4(5)7-3/h3-4,6H,2H2,1H3	InChI=1S/C5H8O2/c1-5(6)2-3-4(5)7-3/h3-4,6H,2H2,1H3/t3-,4-,5-/m1/s1
