12
gdb 3841	5.73104	2.83546	1.89694	1.8535	60.81	-0.2129	-0.0553	0.1576	624.6814	0.093522	-319.567241	-319.561845	-319.560901	-319.596299	20.663	
N	-0.045098002	 1.34334635	 0.0103050752	-0.557409
C	-0.022056196	 0.0600732967	 0.003419981	 0.386702
N	 1.1368761033	-0.7336279981	-0.007759184	-0.292538
N	 1.2295844496	-2.0741409935	-0.0153927148	-0.173248
C	 0.1113932877	-2.7342121493	-0.0121179121	-0.004504
C	-1.1715629287	-2.0887638269	-0.0009644046	-0.106797
C	-1.2363932945	-0.7399755567	 0.0065374514	-0.086202
H	 0.8960785094	 1.7406698981	 0.006705657	 0.196959
H	 2.0327450163	-0.2677683185	-0.0107226425	 0.263984
H	 0.2017288543	-3.81425381	-0.0183606228	 0.125883
H	-2.0709156797	-2.6950968825	 0.0012730544	 0.116264
H	-2.1700656397	-0.1912935294	 0.0150695918	 0.130907
149.1645	360.7813	426.3751	490.6895	557.7027	616.1363	640.6717	729.8343	792.1479	821.8855	843.0356	915.312	1004.2146	1019.8623	1026.4825	1087.5949	1164.792	1180.6601	1321.2773	1395.6218	1420.711	1458.4103	1587.4782	1653.9917	1713.9992	3186.4672	3203.6938	3221.7511	3453.736	3607.0582
N=C1NN=CC=C1	[NH]C1=CCC=NN1	
InChI=1S/C4H5N3/c5-4-2-1-3-6-7-4/h1-3H,(H2,5,7)	InChI=1S/C4H6N3/c5-4-2-1-3-6-7-4/h2-3,5,7H,1H2
