11
gdb 4321	4.17518	2.06519	1.38174	5.1669	55.77	-0.2698	-0.0552	0.2146	795.1626	0.073931	-430.795971	-430.789503	-430.788559	-430.826698	23.541	
N	 0.01888209	 1.3189730713	 0.0078749522	-0.533636
C	-0.0133460455	-0.0208482478	 0.0009824008	 0.461059
N	-1.1807061369	-0.6263508175	 0.004173237	-0.388865
C	-1.2206800768	-1.9742594261	-0.0026715517	 0.444127
O	-2.1532008124	-2.7124333798	-0.0017659777	-0.325485
O	 0.0992979796	-2.6500291535	-0.0136257268	-0.205229
C	 1.1823290105	-1.9069238596	-0.015660923	 0.16301
N	 1.2355325639	-0.620977292	-0.0090909758	-0.334872
H	 0.9054820243	 1.791125893	 0.0055136768	 0.281872
H	-0.8451959306	 1.833025317	 0.0153624905	 0.28352
H	 2.100305044	-2.4929112749	-0.0238492923	 0.1545
121.098	172.6669	271.6144	370.3604	420.4267	530.6712	534.8091	582.7044	614.834	637.3045	766.4431	811.3327	866.844	955.4607	1016.0193	1031.8635	1228.3027	1293.0037	1393.8455	1472.4028	1554.2933	1639.259	1695.4537	1924.6094	3160.1169	3622.2753	3763.7249
NC1=NC(=O)OC=N1	Nc1nc(=O)ocn1	
InChI=1S/C3H3N3O2/c4-2-5-1-8-3(7)6-2/h1H,(H2,4,6,7)	InChI=1S/C3H3N3O2/c4-2-5-1-8-3(7)6-2/h1H,(H2,4,6,7)
