14
gdb 2193	3.84767	2.6213	1.80235	3.1797	53.3	-0.246	0.0039	0.2499	707.1464	0.113596	-361.735863	-361.728698	-361.727754	-361.767029	25.429	
C	-0.2596023976	 1.5070622763	-0.0536317535	-0.395722
C	 0.0564554865	 0.0306730641	 0.0179730739	 0.139243
O	 1.2253730475	-0.3277674478	-0.8045025457	-0.25498
C	 1.965238505	-0.6985734589	 0.2900571307	 0.415824
O	 3.1120834638	-1.0130755106	 0.324443102	-0.326497
C	 0.7955869155	-0.4967410122	 1.2794835313	-0.170461
N	 0.916480745	 0.3618790229	 2.4327889732	-0.511636
H	 0.6142978282	 2.1149126399	 0.198489866	 0.121109
H	-0.5833366007	 1.7799022169	-1.0617446064	 0.135119
H	-1.0605727873	 1.749166125	 0.6507823701	 0.13906
H	-0.7968232848	-0.5776414366	-0.29371677	 0.097777
H	 0.3995982335	-1.4647618412	 1.5987402748	 0.120543
H	 1.2814902844	-0.1569466216	 3.2234509246	 0.247873
H	 1.5633974912	 1.1245171438	 2.2615599089	 0.242748
99.7426	175.1133	203.7579	233.1364	240.2911	379.8252	470.211	560.1583	688.7257	759.7875	794.1201	820.5489	870.6358	933.9281	1035.1597	1045.0873	1109.0845	1131.3528	1195.2528	1209.6539	1240.3977	1313.2735	1382.5008	1411.8457	1427.9002	1479.9855	1495.063	1669.8697	1928.3947	3045.8582	3071.1549	3084.9986	3120.9622	3125.6938	3515.8022	3593.6279
CC1OC(=O)C1N	C[C@H]1OC(=O)[C@H]1N	
InChI=1S/C4H7NO2/c1-2-3(5)4(6)7-2/h2-3H,5H2,1H3	InChI=1S/C4H7NO2/c1-2-3(5)4(6)7-2/h2-3H,5H2,1H3/t2-,3+/m1/s1
