14
gdb 2188	4.07184	2.54646	1.81395	2.7306	54.2	-0.2494	0.0209	0.2703	701.4617	0.112759	-361.731388	-361.724011	-361.723067	-361.762805	26.068	
C	 0.0057997959	 1.5548317246	 0.0033211737	-0.384696
C	-0.0059891527	 0.0359927444	 0.0401669891	 0.032194
N	 1.0263548822	-0.6288623478	-0.782219296	-0.334692
C	 1.7584914422	-1.1171577376	 0.2652609847	 0.391054
O	 2.8321804286	-1.6534590795	 0.3623511574	-0.370399
C	 0.6885826349	-0.6342406883	 1.2765016198	-0.019257
O	 1.1481739052	 0.2381852383	 2.274537383	-0.428468
H	 0.9945200341	 1.9427787353	 0.2573033997	 0.130953
H	-0.2752055378	 1.9200295603	-0.9899705243	 0.113048
H	-0.7115610293	 1.9540637419	 0.7265179111	 0.132788
H	-1.0099444262	-0.3536791984	-0.1600911766	 0.086906
H	 1.2431378232	-0.5622274246	-1.7669024965	 0.250497
H	 0.0961413437	-1.4563923423	 1.6993226908	 0.096848
H	 2.0458629362	-0.0338492162	 2.4984927541	 0.303224
81.2442	168.8786	208.2354	212.3669	258.0686	368.4812	437.7078	513.6534	553.6413	705.2877	767.6475	812.7355	890.9542	913.98	1035.3934	1076.7855	1117.5676	1166.9625	1190.3699	1206.1446	1280.117	1351.5061	1369.5921	1382.9506	1396.0865	1415.9248	1488.1233	1490.5721	1888.6787	3018.1817	3041.976	3049.2232	3110.3224	3135.6198	3594.1601	3796.5369
CC1NC(=O)C1O	C[C@H]1NC(=O)[C@H]1O	
InChI=1S/C4H7NO2/c1-2-3(6)4(7)5-2/h2-3,6H,1H3,(H,5,7)	InChI=1S/C4H7NO2/c1-2-3(6)4(7)5-2/h2-3,6H,1H3,(H,5,7)/t2-,3+/m1/s1
