15
gdb 1553	5.6362	1.29063	1.10219	3.9247	58.01	-0.2675	0.0262	0.2937	1014.6456	0.124907	-341.834413	-341.826098	-341.825154	-341.867368	28.485	
N	 0.0068069678	 1.4986697779	 0.0491885773	-0.494211
C	-0.0155804911	 0.0339263601	-0.0127617461	-0.135979
C	-1.4486014585	-0.5004863191	 0.148753986	-0.162116
C	-2.0658061741	-0.1243804542	 1.491763473	-0.079536
O	-3.3485390683	-0.7283894557	 1.5396309347	-0.421241
C	 0.5924689083	-0.4994966543	-1.2524925779	 0.256368
N	 1.075500811	-0.869741754	-2.2357354452	-0.320412
H	 0.9622851022	 1.8374086818	-0.0124103126	 0.245854
H	-0.4861527048	 1.8808866528	-0.7537433023	 0.242402
H	 0.5906542065	-0.3359369425	 0.8238582594	 0.132542
H	-2.0780937621	-0.1152456408	-0.6617043501	 0.11999
H	-1.4416109011	-1.5905088555	 0.0515576702	 0.13105
H	-1.4199885847	-0.4890839183	 2.3084473034	 0.084725
H	-2.1229697585	 0.9676861093	 1.5835206323	 0.111371
H	-3.7909029527	-0.4312958276	 2.339869108	 0.289195
77.3326	100.2246	129.238	221.6847	251.688	270.512	307.9725	365.6305	428.004	582.6142	586.7905	800.0792	848.3754	948.5303	951.9383	1025.366	1047.2765	1087.4081	1138.802	1195.4983	1240.3187	1273.5785	1305.3946	1318.86	1364.5892	1395.3517	1460.5936	1488.0438	1530.5033	1662.6728	2345.178	2960.8429	3033.5685	3036.535	3050.7174	3098.9554	3491.3231	3571.5734	3834.3338
NC(CCO)C#N	N[C@@H](CCO)C#N	
InChI=1S/C4H8N2O/c5-3-4(6)1-2-7/h4,7H,1-2,6H2	InChI=1S/C4H8N2O/c5-3-4(6)1-2-7/h4,7H,1-2,6H2/t4-/m0/s1
