13
gdb 975	3.75065	3.37672	1.79893	1.0632	56.37	-0.1862	0.0306	0.2168	665.0627	0.10378	-340.652012	-340.645558	-340.644614	-340.68188	24.536	
N	-0.070101852	 1.3991740872	 0.0168694979	-0.604128
C	-0.0969871753	 0.0044041604	-0.0063195498	 0.222548
C	-1.1610760634	-0.8497767009	-0.0112501141	 0.21785
N	-2.5151959848	-0.4927815708	-0.0567707196	-0.611867
C	-0.6151152705	-2.1779224746	-0.0506016348	-0.242546
C	 0.7351941597	-2.0278145779	-0.0676709804	-0.01058
O	 1.082435542	-0.7204482397	-0.0535133724	-0.171125
H	 0.4936519135	 1.7674937181	 0.7767057062	 0.242652
H	 0.2697602265	 1.8068970604	-0.8495281649	 0.243883
H	-2.6316569316	 0.4909012511	 0.1590302737	 0.246002
H	-3.0886972502	-1.0478495584	 0.5662173277	 0.239642
H	-1.1622964476	-3.1078316629	-0.0689471557	 0.100479
H	 1.5502970835	-2.7331262319	-0.0863173237	 0.12719
207.2333	252.2119	262.8547	304.7242	312.9568	457.8682	609.0241	650.7973	668.8251	738.7074	748.237	785.5752	803.6539	818.9315	905.4122	1042.8898	1075.8715	1146.5684	1197.0037	1214.9672	1304.2288	1323.0378	1474.0148	1549.5274	1639.0838	1654.6405	1723.4466	3248.2392	3275.344	3482.2494	3518.829	3546.0776	3611.0191
NC1=C(N)C=CO1	Nc1c(N)cco1	
InChI=1S/C4H6N2O/c5-3-1-2-7-4(3)6/h1-2H,5-6H2	InChI=1S/C4H6N2O/c5-3-1-2-7-4(3)6/h1-2H,5-6H2
