17
gdb 2802	4.27826	2.0651	1.56091	2.3085	60.46	-0.2436	0.0624	0.306	825.1635	0.147393	-346.833365	-346.825471	-346.824527	-346.865799	27.888	
C	 0.1690965101	 1.475208	 0.084488698	-0.388215
C	 0.0379571479	-0.0490258341	 0.0157051542	-0.172985
C	 0.5158677159	-0.5933180869	-1.3206033364	 0.134764
O	 1.9290271067	-0.347325205	-1.555338828	-0.292627
C	 2.2327833422	-1.7554649215	-1.5520799123	-0.097202
C	 0.7357420459	-2.120901624	-1.4369510162	 0.042708
O	 0.3187719894	-2.8398982585	-0.3012149662	-0.421617
H	 1.2063008751	 1.7769494289	-0.0870623748	 0.135037
H	-0.4520746499	 1.9635957475	-0.6750006653	 0.109302
H	-0.1402644784	 1.8538355441	 1.0631371952	 0.109692
H	 0.6129589382	-0.5189151222	 0.8196347096	 0.108824
H	-1.0057368119	-0.3547286535	 0.159074942	 0.100307
H	-0.0809825447	-0.1637740801	-2.1374245942	 0.070981
H	 2.7527388843	-2.0673452004	-2.4662424396	 0.095973
H	 2.8202870301	-2.0556917281	-0.6742966368	 0.09976
H	 0.3174702017	-2.5501600355	-2.3557212967	 0.076081
H	 0.4637701074	-3.7769966908	-0.4621840125	 0.289215
62.0119	103.7993	173.6698	215.4691	229.6776	291.5559	410.7534	450.2956	536.8438	740.719	782.513	836.4977	893.3268	937.9761	978.4083	1025.6268	1047.3996	1066.5421	1108.2977	1133.201	1158.6163	1186.6718	1218.0833	1272.4427	1294.3268	1312.6281	1325.282	1357.2081	1403.7533	1409.5108	1439.8487	1476.419	1498.0092	1510.1479	1515.6546	2998.9853	3007.162	3024.4338	3034.1429	3039.4423	3058.4715	3082.3232	3103.9032	3118.0644	3827.8226
CCC1OCC1O	CC[C@H]1OC[C@H]1O	
InChI=1S/C5H10O2/c1-2-5-4(6)3-7-5/h4-6H,2-3H2,1H3	InChI=1S/C5H10O2/c1-2-5-4(6)3-7-5/h4-6H,2-3H2,1H3/t4-,5-/m1/s1
