16
gdb 2030	7.5801	1.75276	1.65057	2.3196	61.97	-0.2155	0.0814	0.2969	793.8334	0.136024	-325.721011	-325.71415	-325.713206	-325.751678	25.42	
C	-0.0288086894	 1.5099597117	 0.0586406148	-0.319957
N	-0.0214290226	 0.0659321521	 0.0988096661	-0.06981
C	-1.2660657789	-0.6313682965	 0.4960741137	-0.244781
C	-0.4132640705	-1.5619632269	 1.3592255308	 0.432336
C	-0.7536823028	-2.4877547356	 2.4330716231	-0.265653
O	-0.3226016142	-2.9557985015	 1.1443154075	-0.262137
C	 0.7612044081	-0.6024363753	 1.1636741638	-0.244781
H	 0.9745131548	 1.880131933	-0.1766752932	 0.123037
H	-0.7052064006	 1.8561609464	-0.7298304956	 0.123037
H	-0.349512154	 1.9738677217	 1.0123897831	 0.087218
H	-1.9550561483	-0.0099981979	 1.0919431321	 0.087984
H	-1.8182986232	-1.0947220566	-0.3285305213	 0.116775
H	-0.0516594152	-2.6552902125	 3.2493614791	 0.115986
H	-1.7987321488	-2.6802199959	 2.6740308687	 0.115986
H	 1.7070041389	-1.04441107	 0.832386077	 0.116775
H	 0.9451632866	 0.0313915938	 2.0470140803	 0.087984
84.4084	229.1546	269.6013	302.4059	302.6675	388.7065	423.5963	520.5714	738.4541	825.2025	865.7011	930.3077	947.9632	977.5917	993.3254	1092.1454	1119.8086	1125.7947	1139.8575	1171.6856	1180.1539	1192.1345	1221.113	1222.9602	1302.5583	1325.3554	1451.6277	1457.7681	1487.0257	1487.9445	1498.1891	1514.9318	1547.5781	2913.2953	2961.2121	2970.676	3057.251	3062.7609	3063.7199	3077.7152	3100.048	3162.6698
CN1CC2(CO2)C1	CN1CC2(CO2)C1	
InChI=1S/C5H9NO/c1-6-2-5(3-6)4-7-5/h2-4H2,1H3	InChI=1S/C5H9NO/c1-6-2-5(3-6)4-7-5/h2-4H2,1H3
