17
gdb 2087	4.72713	2.35609	1.67837	1.2361	66.67	-0.2346	0.0278	0.2624	771.7952	0.149475	-309.731402	-309.724564	-309.72362	-309.761891	25.817	
C	 0.0050996452	 1.5156401997	 0.0629842096	-0.477555
C	-0.0211855637	 0.0167321662	-0.0373217729	 0.291727
C	-0.0680390515	-0.6496017001	-1.1916772765	-0.150659
C	-0.0397326284	-2.1539846947	-1.2542921283	-0.249318
C	 0.4337206546	-2.7200700031	 0.0853644033	-0.077629
O	-0.2592092023	-2.1144043552	 1.1631747377	-0.245093
C	 0.0184187137	-0.7337991677	 1.2741027378	-0.143699
H	 0.8959566207	 1.8638135009	 0.6022910759	 0.123422
H	 0.0069247576	 1.9816029033	-0.9258633483	 0.123312
H	-0.8623710942	 1.8952601591	 0.618419075	 0.123904
H	-0.1206343399	-0.102798141	-2.1307288277	 0.077113
H	-1.0358294485	-2.548310768	-1.4992616305	 0.112636
H	 0.6300174509	-2.4925706597	-2.0554693112	 0.099859
H	 0.2397653191	-3.7936498341	 0.1617707312	 0.103929
H	 1.5200318817	-2.5614654555	 0.1930141923	 0.086117
H	 1.0016509401	-0.5732281694	 1.7576554325	 0.090582
H	-0.7352021452	-0.3284293405	 1.96122458	 0.111351
137.3171	173.9171	251.7626	316.1631	325.9039	430.975	462.4907	523.2678	646.9327	797.6731	849.5504	896.2817	922.0175	953.9049	1006.4058	1028.4805	1069.6348	1081.1914	1100.4523	1143.7714	1181.2569	1230.4008	1263.4026	1315.1336	1346.0704	1364.6263	1395.7123	1412.0375	1422.7708	1471.6055	1478.5711	1483.72	1491.6377	1501.1558	1745.6735	2917.7471	2964.9602	3009.3725	3013.1971	3039.6266	3044.1125	3058.1805	3086.4959	3111.122	3145.1873
CC1=CCCOC1	CC1=CCCOC1	
InChI=1S/C6H10O/c1-6-3-2-4-7-5-6/h3H,2,4-5H2,1H3	InChI=1S/C6H10O/c1-6-3-2-4-7-5-6/h3H,2,4-5H2,1H3
