15
gdb 524	21.2057	1.36147	1.31075	2.8689	58.57	-0.2456	0.0272	0.2729	926.9585	0.129432	-287.689262	-287.681558	-287.680614	-287.721527	25.249	
C	-0.0430376107	 1.4893199445	 0.0615331694	-0.384007
C	 0.1177536355	-0.017939617	-0.0052179219	-0.052403
O	 0.6449357309	-0.4588603883	 1.2493747856	-0.202941
C	 0.8517267304	-1.7843905807	 1.3677380439	 0.135796
N	 1.3135498996	-2.2725634878	 2.4307477442	-0.203832
C	 1.5049299423	-3.7062518509	 2.4751967802	-0.313903
H	 0.9208936455	 1.9704345972	 0.2472038702	 0.13617
H	-0.4454138525	 1.8661158201	-0.8833525292	 0.119948
H	-0.7269126746	 1.767204536	 0.8678846286	 0.136147
H	-0.8485443132	-0.5056396074	-0.19420369	 0.1071
H	 0.8024130721	-0.3019402167	-0.8163133783	 0.107121
H	 0.5845603989	-2.3711885623	 0.4731116633	 0.068247
H	 0.9220363868	-4.1303922949	 3.3009837903	 0.126686
H	 1.2172303551	-4.2276474832	 1.5467763573	 0.09319
H	 2.5575789837	-3.9312154986	 2.6823185264	 0.12668
35.6424	92.3489	161.1501	206.8111	249.0054	311.0149	330.3503	463.297	579.1745	817.1343	918.2108	984.3237	1049.923	1064.3922	1141.3618	1143.528	1161.0086	1182.9459	1255.3917	1301.6229	1387.778	1409.5403	1434.0245	1450.5358	1480.4293	1483.4869	1499.0506	1505.1509	1523.9701	1782.1221	2961.1708	2975.6795	3001.9038	3037.5208	3049.2811	3055.3681	3074.8887	3124.1933	3129.5637
CCOC=NC	CCOC=NC	
InChI=1S/C4H9NO/c1-3-6-4-5-2/h4H,3H2,1-2H3	InChI=1S/C4H9NO/c1-3-6-4-5-2/h4H,3H2,1-2H3
