16
gdb 4853	6.35795	1.27889	1.07745	0.409	68.51	-0.1704	0.0648	0.2352	1075.5384	0.13132	-379.938574	-379.93029	-379.929346	-379.971555	29.853	
C	 0.6021801618	 0.7662215947	-0.3133294824	-0.24296
O	-0.6998588297	 0.9740065325	 0.2026457215	-0.262118
C	-1.5601313754	-0.0489852415	-0.008146538	 0.410459
C	-1.4500456234	-1.2770260412	-0.6167656704	-0.294004
C	-2.7399795465	-1.8953781996	-0.5131222052	-0.201877
C	-3.5741757325	-1.0345946068	 0.153973045	 0.251768
N	-4.9202224755	-1.0970042509	 0.5852569252	-0.611651
N	-2.8361095175	 0.0984517752	 0.4582873067	-0.341843
H	 1.1785645369	 1.6610331867	-0.0739202252	 0.132007
H	 1.0750526177	-0.1104344053	 0.1480451775	 0.124548
H	 0.5780428774	 0.6237589196	-1.4015067925	 0.124101
H	-0.5711291489	-1.6861174305	-1.0868272736	 0.089401
H	-3.0157498775	-2.864985505	-0.8998191626	 0.079613
H	-5.5715359383	-0.8432963796	-0.1526210593	 0.239806
H	-5.1589863933	-2.034766094	 0.8855208619	 0.242771
H	-3.1726267655	 0.8734501359	 1.0032237113	 0.259978
71.2201	76.6551	191.6118	211.5399	228.3393	336.2821	356.8581	447.7551	504.8518	627.5292	649.9803	671.1676	702.0045	734.3197	786.8696	814.7703	988.0125	1015.318	1058.3819	1089.7127	1183.9567	1186.8256	1207.5643	1241.2766	1266.0616	1294.0147	1433.304	1465.0111	1480.9113	1482.3447	1511.1574	1578.0782	1634.8029	1660.5122	3005.1182	3062.2579	3137.2589	3240.1368	3264.2751	3484.3252	3577.3468	3682.9611
COC1=CC=C(N)N1	COc1ccc(N)[nH]1	
InChI=1S/C5H8N2O/c1-8-5-3-2-4(6)7-5/h2-3,7H,6H2,1H3	InChI=1S/C5H8N2O/c1-8-5-3-2-4(6)7-5/h2-3,7H,6H2,1H3
