17
gdb 1179	3.86656	1.89126	1.77921	4.2439	64.49	-0.2392	0.0352	0.2745	817.5813	0.14703	-305.90476	-305.896212	-305.895268	-305.937107	30.736	
C	-0.1134112818	 1.4743782687	 0.1107832685	-0.330262
N	-0.0002346155	 0.0263234186	-0.0338069957	-0.29735
C	 0.7168690658	-0.4721436342	-1.2208119002	 0.105108
C	-0.0210481941	-0.0428095616	-2.5056603041	-0.395726
C	 2.2083081641	-0.0574408156	-1.2915606176	-0.407412
C	 0.6627940393	-1.9483079094	-1.1314897938	 0.279671
N	 0.6498180108	-3.1014394045	-1.0605175339	-0.339964
H	 0.839726304	 2.0274090989	 0.0898740696	 0.10284
H	-0.7592689949	 1.8850038862	-0.6705838725	 0.132027
H	-0.5966813332	 1.6805565394	 1.0695920245	 0.131037
H	 0.4298263198	-0.3674033485	 0.795994363	 0.228778
H	 0.0749481989	 1.0356044886	-2.6549254104	 0.123972
H	 0.410143776	-0.5437318345	-3.3752753701	 0.135621
H	-1.0802879222	-0.2989395874	-2.4367316739	 0.144016
H	 2.7413570155	-0.3763346043	-0.3913192848	 0.126855
H	 2.6996059942	-0.5103670801	-2.1571426982	 0.135275
H	 2.2920064033	 1.0286800597	-1.3823149203	 0.125515
76.5631	163.8692	186.8048	206.3343	259.7936	271.9978	309.3176	359.1096	389.8198	450.3976	571.085	583.1626	686.3767	755.9451	866.6436	926.121	963.7268	1022.0949	1096.8823	1118.7073	1154.8979	1187.0303	1237.9216	1269.6955	1391.9787	1411.9125	1459.3282	1472.895	1480.0354	1492.1525	1501.6087	1505.0623	1511.5128	1526.0172	2358.4954	2972.0209	3044.5549	3055.2405	3077.5939	3115.5931	3120.5059	3124.7568	3131.7578	3142.1689	3529.0811
CNC(C)(C)C#N	CNC(C)(C)C#N	
InChI=1S/C5H10N2/c1-5(2,4-6)7-3/h7H,1-3H3	InChI=1S/C5H10N2/c1-5(2,4-6)7-3/h7H,1-3H3
