14
gdb 1624	3.8867	2.10964	1.45031	3.9552	54.07	-0.2801	0.0095	0.2896	806.9968	0.111283	-361.716705	-361.708538	-361.707594	-361.748927	28.583	
C	-0.0353084122	 1.5545684221	 0.0890881348	-0.414868
C	 0.0097384307	 0.0308006769	 0.0719224146	 0.116566
O	-1.270199593	-0.5595375196	 0.1930394827	-0.414171
C	 0.720939889	-0.4899183607	-1.206003493	-0.034477
O	 2.0373267374	 0.0113617104	-1.3445132077	-0.407369
C	 0.7051291594	-1.9649963358	-1.2492248452	 0.264581
N	 0.7579447389	-3.1189330256	-1.2691185891	-0.314895
H	 0.9684534868	 1.9749531039	-0.0038374184	 0.141011
H	-0.6345209782	 1.9312910021	-0.7501341962	 0.112281
H	-0.4885740521	 1.9054023358	 1.0193481735	 0.133415
H	 0.5764797356	-0.3348392607	 0.937559791	 0.101498
H	-1.8636664487	-0.1317945835	-0.4347536071	 0.286626
H	 0.1713637327	-0.1191092745	-2.0806170865	 0.129892
H	 2.5977594039	-0.4240165707	-0.6915371335	 0.299909
73.6473	147.2498	215.8786	241.8388	268.1491	293.9893	301.2357	365.4955	421.6995	469.7717	550.8167	613.4237	845.4574	903.5115	984.8585	1055.7764	1082.937	1121.7211	1148.0744	1233.2235	1286.1714	1318.0718	1375.727	1399.3337	1414.4062	1419.1483	1489.2574	1494.5977	2358.2115	3025.7072	3032.2343	3049.5807	3107.0499	3140.1049	3797.6062	3801.8193
CC(O)C(O)C#N	C[C@@H](O)[C@@H](O)C#N	
InChI=1S/C4H7NO2/c1-3(6)4(7)2-5/h3-4,6-7H,1H3	InChI=1S/C4H7NO2/c1-3(6)4(7)2-5/h3-4,6-7H,1H3/t3-,4+/m1/s1
