14
gdb 4984	3.37699	2.34684	1.38597	2.659	68.53	-0.1977	-0.0034	0.1944	832.4473	0.109812	-378.787816	-378.781104	-378.78016	-378.818217	26.595	
N	-0.05053774	 1.3889226803	-0.1326655391	-0.56491
C	-0.0185965775	 0.0115515863	-0.0587091094	 0.320234
N	-1.1718189798	-0.6443926638	 0.0221384031	-0.334274
C	-1.147123226	-1.9845338683	 0.0342410095	-0.020746
C	 0.0177020389	-2.7295594268	-0.0229501288	-0.129967
C	 1.2349734932	-2.0410359431	-0.0932499779	-0.211503
C	 1.2253578667	-0.6616996544	-0.1127466479	 0.307703
O	 2.3428932644	 0.1280054038	-0.1725487816	-0.457631
H	 0.7883713799	 1.8670073464	 0.1559562314	 0.260052
H	-0.9153470323	 1.7962815507	 0.188969294	 0.253318
H	-2.1153377124	-2.4741168086	 0.0972593958	 0.09957
H	-0.0101270707	-3.8123219666	-0.0070888203	 0.092125
H	 2.1794184824	-2.5783953104	-0.1320445399	 0.088163
H	 3.1271392532	-0.4303326355	-0.1793462587	 0.297866
173.2563	298.4656	307.6082	328.0457	412.2089	460.9985	471.752	534.3933	559.3367	592.3208	597.344	775.0516	780.4941	807.386	894.399	913.9259	954.3163	1045.1953	1093.9128	1148.1348	1174.9367	1286.0365	1329.7541	1337.2115	1384.9327	1492.1673	1524.4864	1612.0203	1627.5629	1658.5773	3155.7025	3159.636	3206.0637	3581.1553	3700.8283	3822.422
NC1=NC=CC=C1O	Nc1ncccc1O	
InChI=1S/C5H6N2O/c6-5-4(8)2-1-3-7-5/h1-3,8H,(H2,6,7)	InChI=1S/C5H6N2O/c6-5-4(8)2-1-3-7-5/h1-3,8H,(H2,6,7)
