11
gdb 3432	5.17881	3.0336	2.17018	4.2834	46.22	-0.2676	-0.0167	0.2509	571.0194	0.079507	-380.401348	-380.396123	-380.395179	-380.430397	19.204	
O	 0.0194254691	 0.0128787573	 0.2062120835	-0.333825
C	 0.0251342915	 1.1889842603	-0.0027941195	 0.475737
O	-1.1144511915	 1.9181189777	-0.1867353705	-0.229801
C	-0.8345105836	 3.2549175027	-0.6369310016	-0.104759
C	 0.6648543291	 3.4259787026	-0.5123637948	 0.027237
O	 1.1129142244	 3.2011919113	 0.8203877924	-0.234244
C	 1.2066170194	 2.1205353714	-0.1254561005	-0.129532
H	-1.1676999259	 3.3551786889	-1.6756651514	 0.129037
H	-1.390908448	 3.954286039	-0.0068215411	 0.141956
H	 1.2071426784	 4.1606664901	-1.0987912153	 0.124228
H	 2.1949454772	 1.7370062687	-0.3482203311	 0.133965
172.7536	260.9193	398.5968	466.1435	640.0204	722.9898	792.7836	840.9101	865.1095	875.9475	947.2007	979.4978	1060.3707	1077.555	1108.9662	1176.4089	1227.631	1245.9526	1309.0163	1384.0167	1423.0881	1501.2638	1891.5228	3049.3956	3104.056	3174.3405	3203.2876
O=C1OCC2OC12	O=C1OC[C@H]2O[C@@H]12	
InChI=1S/C4H4O3/c5-4-3-2(7-3)1-6-4/h2-3H,1H2	InChI=1S/C4H4O3/c5-4-3-2(7-3)1-6-4/h2-3H,1H2/t2-,3-/m1/s1
