15
gdb 2033	7.37418	1.69002	1.60135	0.6604	57.07	-0.2567	0.0696	0.3262	782.2759	0.124334	-345.615042	-345.608376	-345.607431	-345.645545	25.253	
O	 0.6124026453	 0.838729001	-0.6634973894	-0.431514
C	-0.0359888073	-0.1745015473	 0.0569327182	 0.172425
C	 0.0967602149	-0.2211994669	 1.610881288	-0.358901
C	-1.3826500312	-0.6076704009	 1.6507113856	 0.466199
C	-2.0250310292	-1.715147	 2.3584260649	-0.264213
O	-2.2637718362	-0.347101442	 2.7252793829	-0.269169
C	-1.5884583851	-0.1394176432	 0.2091908164	-0.358893
H	 0.346717057	 1.6877312556	-0.294185863	 0.278287
H	 0.2939438448	-1.1135765498	-0.3945294245	 0.099263
H	 0.8318071642	-0.8979904926	 2.05165501	 0.110364
H	 0.2470727429	 0.7845011377	 2.0208105283	 0.106897
H	-2.8719623895	-2.2305026073	 1.9064738761	 0.115997
H	-1.4578883254	-2.2991259114	 3.0826240252	 0.115996
H	-1.9604835075	 0.8916304654	 0.1846462982	 0.106901
H	-2.1927088177	-0.7512238285	-0.4640075269	 0.110362
82.47	254.9815	313.6588	326.9912	343.2045	447.545	447.6233	518.5445	725.181	809.3953	846.1387	871.1082	888.8319	979.5735	982.6207	1028.4358	1061.7815	1120.7965	1126.2572	1158.0477	1187.8559	1190.1918	1200.7476	1249.8412	1277.0684	1331.9755	1428.506	1443.9766	1461.1668	1490.2477	1539.4975	3040.2772	3046.1698	3077.619	3081.3938	3111.4399	3115.7346	3164.2893	3805.0521
OC1CC2(CO2)C1	O[C@H]1C[C@]2(CO2)C1	
InChI=1S/C5H8O2/c6-4-1-5(2-4)3-7-5/h4,6H,1-3H2	InChI=1S/C5H8O2/c6-4-1-5(2-4)3-7-5/h4,6H,1-3H2/t4-,5+
