11
gdb 731	9.39394	3.54635	2.61617	4.1169	47.56	-0.2499	0.0027	0.2526	482.4411	0.086525	-281.476938	-281.471586	-281.470642	-281.506126	18.403	
C	 0.0022130918	 1.5022212627	 0.0430764194	-0.4831
C	 0.0587386307	 0.0128646079	-0.0505545702	 0.315838
C	-0.1378733722	-0.8144694151	-1.1318092301	-0.162881
N	 0.0377999777	-2.0609061766	-0.6305075311	-0.147877
N	 0.3267116112	-2.026505692	 0.6817824657	-0.113676
N	 0.3395657029	-0.7737887035	 1.033069423	-0.241406
H	 0.9599595962	 1.9103457201	 0.3809473485	 0.143338
H	-0.2362777934	 1.9478011168	-0.9258802374	 0.121965
H	-0.7582515096	 1.8210951763	 0.762810066	 0.143353
H	-0.3764465913	-0.6289944512	-2.1654619959	 0.142938
H	-0.0201879339	-2.9499434356	-1.1003788578	 0.281509
53.1429	275.7858	333.8553	565.0497	671.9957	672.5064	730.6336	780.7779	984.8011	998.7679	1035.509	1060.0056	1067.1754	1132.0214	1268.7044	1320.5345	1339.4984	1419.6078	1478.5178	1482.6352	1499.7022	1599.4875	3042.6462	3100.6113	3122.697	3282.4684	3660.7854
CC1=CNN=N1	Cc1c[nH]nn1	
InChI=1S/C3H5N3/c1-3-2-4-6-5-3/h2H,1H3,(H,4,5,6)	InChI=1S/C3H5N3/c1-3-2-4-6-5-3/h2H,1H3,(H,4,5,6)
