17
gdb 1516	8.38043	1.19046	1.06988	1.5546	61.45	-0.2674	0.0194	0.2869	1115.7103	0.146457	-346.898838	-346.890086	-346.889142	-346.933065	29.202	
C	 0.0154259383	 1.5833680531	-0.0525252857	-0.386294
C	-0.0021297945	 0.054194326	 0.0031318185	-0.155517
C	 0.6878688482	-0.5825069372	-1.2033967491	-0.309232
C	 0.6795020872	-2.0965677046	-1.164204044	 0.443805
O	 0.1936366871	-2.7778601128	-0.2964035776	-0.355705
O	 1.2999405114	-2.6063247858	-2.2500991507	-0.234468
C	 1.3485398246	-4.036470047	-2.3126960798	-0.238589
H	 1.0403006819	 1.970863088	-0.0748029674	 0.113739
H	-0.4968736412	 1.9567848195	-0.9464635979	 0.113739
H	-0.4835048058	 2.0148280442	 0.820371165	 0.116007
H	 0.4849747313	-0.2962464892	 0.9193347157	 0.112953
H	-1.033495809	-0.3101539727	 0.0582784164	 0.112953
H	 0.2155632871	-0.2686417796	-2.1429617204	 0.128743
H	 1.7321958502	-0.2547580335	-1.2829480492	 0.128743
H	 1.8839993818	-4.4437816915	-1.4511437193	 0.138998
H	 0.3400344425	-4.4579043599	-2.3270984761	 0.138989
H	 1.8749778186	-4.276186237	-3.2367515881	 0.131136
33.8484	79.5903	124.7234	146.6266	177.669	245.5601	305.3234	337.6349	432.3118	587.4061	703.392	748.4525	884.9763	893.9626	913.5729	1028.5292	1052.5745	1123.7227	1131.3736	1179.7329	1200.9156	1217.7868	1251.2055	1322.6229	1331.3448	1402.4434	1414.6712	1458.492	1474.1754	1482.3521	1488.3999	1498.5925	1500.3074	1509.0521	1819.8327	3028.3439	3032.2209	3049.8264	3050.6045	3057.9564	3077.9233	3101.4281	3105.4469	3123.5883	3156.4823
CCCC(=O)OC	CCCC(=O)OC	
InChI=1S/C5H10O2/c1-3-4-5(6)7-2/h3-4H2,1-2H3	InChI=1S/C5H10O2/c1-3-4-5(6)7-2/h3-4H2,1-2H3
