14
gdb 4996	3.3544	2.31685	1.38195	1.6797	66.75	-0.2372	-0.0419	0.1953	841.3835	0.109763	-378.800833	-378.794091	-378.793146	-378.831733	25.059	
C	-0.0235012478	 1.5168818189	 0.0048844819	-0.477023
C	-0.0059965095	 0.0187714379	-0.0203337425	 0.129261
C	-0.0563093432	-0.7257662722	-1.1608507321	-0.066649
N	-0.0425797128	-2.0994141677	-1.2229357761	-0.282264
C	 0.0244326313	-2.7099404101	-0.0838896437	 0.109683
N	 0.079372666	-2.0726673418	 1.1125269902	-0.33648
C	 0.0696519521	-0.6697870429	 1.2601854622	 0.374954
O	 0.1215147472	-0.1624809163	 2.3659760065	-0.381426
H	 0.8741250479	 1.9071741837	 0.496419682	 0.145112
H	-0.0808635297	 1.9289522325	-1.0055017846	 0.119968
H	-0.875151724	 1.8853483191	 0.5867782247	 0.145088
H	-0.1132537702	-0.2282905935	-2.1262333452	 0.113965
H	 0.0402867113	-3.796339289	-0.0473022243	 0.137882
H	 0.1314708515	-2.5978410688	 1.975969881	 0.26793
140.9849	155.5136	252.2052	278.7943	398.2281	472.6545	538.9378	565.9098	606.2882	735.2681	746.1371	799.4455	902.8145	936.0794	978.5987	1023.0404	1070.2739	1092.3709	1130.4722	1206.5151	1276.3755	1391.9654	1416.2338	1420.9012	1469.3163	1469.4878	1487.4028	1598.4799	1660.054	1787.6056	3037.4979	3091.3387	3124.624	3158.7595	3168.904	3591.1237
CC1=CN=CNC1=O	Cc1cnc[nH]c1=O	
InChI=1S/C5H6N2O/c1-4-2-6-3-7-5(4)8/h2-3H,1H3,(H,6,7,8)	InChI=1S/C5H6N2O/c1-4-2-6-3-7-5(4)8/h2-3H,1H3,(H,6,7,8)
