12
gdb 3687	7.30815	2.16989	1.69068	3.4735	51.51	-0.2303	0.0165	0.2468	694.5581	0.091921	-356.732861	-356.72648	-356.725536	-356.763609	22.572	
C	 0.0298117349	 1.4634299936	 0.0031663913	-0.491004
C	 0.0154831623	-0.0256284449	-0.049517895	 0.3731
N	 0.2348795767	-0.7836405221	-1.1160972332	-0.394319
C	 0.1049817491	-2.043601503	-0.6203563073	 0.41605
O	 0.2528004494	-3.1335227041	-1.3849991637	-0.408295
N	-0.1769985783	-2.1395892659	 0.665447727	-0.28956
N	-0.2291933591	-0.8178748498	 1.0098466578	-0.23536
H	 1.0065015161	 1.8485190558	-0.3040510589	 0.157761
H	-0.7171077906	 1.8783894863	-0.6798502392	 0.157761
H	-0.1837911764	 1.8267251424	 1.0117646472	 0.126929
H	 0.452143266	-2.8174559757	-2.2742288799	 0.310131
H	-0.4322666902	-0.5622575327	 1.9616590439	 0.276808
44.6072	211.436	292.1668	372.5623	407.604	483.6176	506.1804	640.7943	689.5976	769.5158	786.6676	997.6587	1034.4162	1058.5573	1081.1554	1158.837	1218.2871	1309.9107	1408.5996	1432.0397	1464.6496	1470.458	1513.9743	1583.7857	1640.2046	3047.3602	3112.0183	3125.7008	3670.2487	3816.1538
CC1=NC(O)=NN1	Cc1nc(O)n[nH]1	
InChI=1S/C3H5N3O/c1-2-4-3(7)6-5-2/h1H3,(H2,4,5,6,7)	InChI=1S/C3H5N3O/c1-2-4-3(7)6-5-2/h1H3,(H2,4,5,6,7)
