14
gdb 2284	7.7071	1.43215	1.39873	2.7698	55.39	-0.2564	0.0197	0.2761	858.6884	0.113895	-361.710299	-361.703355	-361.702411	-361.742314	23.656	
O	-0.064497749	-0.1173166334	 0.3895626766	-0.314338
C	-0.0584957718	 1.0647036708	 0.1260565484	 0.15477
N	 1.0525754921	 1.8006766357	-0.1689568539	-0.286851
C	 2.3797307373	 1.2497068847	-0.2034388877	 0.003511
C	 3.2683120488	 1.5281604502	-1.4391318363	-0.089864
O	 4.3437537828	 1.992614579	-0.6007138331	-0.26662
C	 3.5059840336	 1.9747980159	 0.571068231	-0.089858
H	-0.9765047489	 1.6839706051	 0.0969347519	 0.079316
H	 0.9295630243	 2.7810301401	-0.3724009506	 0.248327
H	 2.2866752426	 0.1929648694	 0.0423631858	 0.13837
H	 3.5578029943	 0.6675276111	-2.051499166	 0.11825
H	 2.8793749973	 2.3214106916	-2.094654139	 0.093366
H	 3.2338574254	 2.9875537423	 0.9034785346	 0.09337
H	 3.9665687211	 1.4356763675	 1.4057518884	 0.11825
44.7623	93.6338	200.7419	215.0746	383.4686	419.2964	540.5912	673.1023	817.6184	882.9733	892.3936	988.1228	1016.0737	1033.8102	1043.7628	1103.2775	1137.7597	1150.9072	1165.3708	1239.6572	1274.8127	1299.7482	1342.1403	1387.0623	1432.6553	1506.8879	1534.2332	1537.6698	1810.5055	2942.1903	2988.3229	2999.4825	3067.1936	3068.207	3141.7869	3618.8669
O=CNC1COC1	O=CNC1COC1	
InChI=1S/C4H7NO2/c6-3-5-4-1-7-2-4/h3-4H,1-2H2,(H,5,6)	InChI=1S/C4H7NO2/c6-3-5-4-1-7-2-4/h3-4H,1-2H2,(H,5,6)
