14
gdb 3482	6.08907	2.93488	2.76246	1.8266	59.46	-0.2106	0.0715	0.2821	563.3954	0.113464	-287.318502	-287.312992	-287.312048	-287.347317	21.876	
C	-0.0268690469	 1.5032860748	 0.0378516917	-0.523506
C	-0.0520254598	 0.0183862383	-0.0715631986	 0.362894
C	 0.5646400805	-0.9815063575	-1.0934104255	-0.166334
C	-0.4564803756	-2.0362650121	-0.6440251634	-0.104996
C	 0.860043323	-1.8887546679	 0.0708851144	-0.0056
N	 0.2832746829	-0.8986907493	 1.081023005	-0.220225
C	-1.039789499	-1.0108166802	 0.3574689043	-0.106819
H	 1.0013943104	 1.8819023518	 0.0267806638	 0.12769
H	-0.5731343352	 1.9718269992	-0.7884506486	 0.122346
H	-0.4915468591	 1.8147114484	 0.9786625072	 0.134762
H	 1.0518262866	-0.8665125016	-2.0513969878	 0.094462
H	-0.8773688862	-2.8602646314	-1.2018101937	 0.09553
H	 1.6673817378	-2.5808860142	 0.2746009569	 0.098185
H	-1.9880280294	-0.9305614983	 0.8768389344	 0.091611
205.687	260.0262	286.7252	600.2902	653.5637	738.068	748.0604	772.3916	814.5652	838.631	856.6461	880.0158	943.4617	973.476	996.8186	1002.7104	1011.4598	1034.8184	1064.0046	1089.7422	1155.0075	1188.835	1252.9263	1267.3369	1343.9341	1395.041	1440.4323	1477.5438	1490.8528	3026.7314	3090.08	3107.5763	3173.7336	3187.6038	3211.5016	3224.8292
CC12C3C4C3N1C24	C[C@@]12[C@@H]3[C@H]4[C@@H]3N1[C@@H]24	
InChI=1S/C6H7N/c1-6-3-2-4(3)7(6)5(2)6/h2-5H,1H3	InChI=1S/C6H7N/c1-6-3-2-4(3)7(6)5(2)6/h2-5H,1H3/t2-,3+,4-,5+,6-,7?/m0/s1
