15
gdb 4522	3.67807	1.70277	1.17623	1.6531	64.69	-0.1659	0.061	0.2269	969.3354	0.119668	-395.996174	-395.987517	-395.986573	-396.029046	31.251	
N	 0.1446792001	 1.4042502079	-0.1078550645	-0.608982
C	 0.0132673191	-0.0001953487	-0.043210373	 0.295792
C	-1.0907007213	-0.8328065149	-0.006135159	-0.362598
C	-0.5968981555	-2.1695775379	-0.0185470795	 0.285708
O	-1.3103078227	-3.339479488	 0.0085539728	-0.459708
C	 0.7782879213	-2.1296689969	-0.0495274078	 0.157735
N	 1.7813636174	-3.1233052929	-0.056396255	-0.616073
N	 1.1275827452	-0.7846852915	-0.0675835897	-0.280956
H	 0.3664522723	 1.8119752382	 0.796607292	 0.241378
H	-0.7190428679	 1.8264072196	-0.426420917	 0.242748
H	-2.1229389506	-0.5177631678	 0.0467436508	 0.073747
H	-2.2438811195	-3.1208777252	 0.0701615016	 0.292413
H	 1.7541450847	-3.6782416135	-0.9068494729	 0.240684
H	 1.6638444769	-3.7713861643	 0.7162292877	 0.241847
H	 2.0704045005	-0.4519362241	-0.1741573367	 0.256264
104.8857	117.2321	181.2093	192.0011	250.2204	263.2988	302.8022	336.5411	461.0233	530.4306	605.3818	644.705	664.5929	678.7426	723.9477	793.6284	823.9631	852.6634	1032.7715	1112.9689	1158.5659	1193.8532	1212.3756	1245.1664	1282.3011	1359.7546	1479.549	1495.4984	1567.515	1647.3856	1662.0524	1686.7719	3228.2371	3482.6769	3487.1622	3544.948	3589.8999	3680.7533	3850.6733
NC1=CC(O)=C(N)N1	Nc1cc(O)c(N)[nH]1	
InChI=1S/C4H7N3O/c5-3-1-2(8)4(6)7-3/h1,7-8H,5-6H2	InChI=1S/C4H7N3O/c5-3-1-2(8)4(6)7-3/h1,7-8H,5-6H2
