17
gdb 1760	4.44246	1.8875	1.68841	0.9133	71.26	-0.236	0.0581	0.2941	826.8948	0.146097	-272.545439	-272.537319	-272.536374	-272.577031	30.311	
C	-0.0811390379	 1.5270339371	-0.0639544116	-0.41525
C	 0.0361176867	 0.0216003638	 0.0193384253	-0.014656
C	 1.3391950707	-0.6892805786	-0.2146659344	-0.317695
C	 0.7269682815	-0.6942267788	 1.183289087	 0.144834
C	 1.4119084639	 0.0910848851	 2.293405239	-0.459488
C	 0.1170208656	-1.9222616126	 1.6236703455	 0.282022
C	-0.3909367442	-2.9418717467	 2.0121903435	-0.470538
H	 0.8338725061	 2.0333562983	 0.2548035831	 0.117702
H	-0.2780713766	 1.8334568899	-1.0973163089	 0.122022
H	-0.9042941281	 1.8999433335	 0.5552041952	 0.122738
H	-0.8415813551	-0.5054752148	-0.3436155208	 0.097548
H	 1.3411275207	-1.6175870722	-0.7735174167	 0.121347
H	 2.2296349364	-0.081306529	-0.3439080591	 0.110868
H	 1.8896167198	 0.9960027507	 1.910998291	 0.114413
H	 0.6949497916	 0.3837704538	 3.0670688343	 0.126533
H	 2.1848661853	-0.5209346289	 2.7683001576	 0.128632
H	-0.8400084265	-3.8426963605	 2.3493627001	 0.18897
139.0006	161.3339	174.801	185.4081	271.294	303.697	383.503	438.4584	532.1143	546.062	578.1318	639.708	659.4812	768.0738	874.2577	896.8972	939.8174	978.6432	1021.9588	1059.7451	1106.0107	1124.119	1131.524	1192.9641	1277.006	1298.4386	1400.1278	1417.8777	1422.4989	1482.7079	1484.5687	1494.0718	1497.5685	1510.8211	2230.5381	3032.0668	3041.1721	3090.5843	3104.1653	3107.4952	3123.9195	3129.6632	3150.9498	3221.5933	3504.35
CC1CC1(C)C#C	C[C@H]1C[C@]1(C)C#C	
InChI=1S/C7H10/c1-4-7(3)5-6(7)2/h1,6H,5H2,2-3H3	InChI=1S/C7H10/c1-4-7(3)5-6(7)2/h1,6H,5H2,2-3H3/t6-,7-/m0/s1
