15
gdb 4146	5.03707	1.56438	1.45293	1.6867	64.31	-0.2465	0.0091	0.2555	870.8229	0.119793	-399.729389	-399.722913	-399.721969	-399.759952	25.514	
O	-0.1528836875	 1.3008639544	 0.0312742739	-0.3914
N	-0.0000331999	-0.0987921309	 0.0148308176	-0.282678
C	-1.1249041216	-0.6792750872	 0.0177106387	 0.489656
C	-2.5608117014	-0.1708992269	 0.0263696032	-0.317216
C	-3.2088531081	-1.5775037529	 0.0225288107	 0.069669
C	-2.4189446973	-2.3655941806	 1.0922329545	-0.233537
C	-1.3423298366	-2.1757378481	-0.008050549	-0.018853
O	-2.4197612193	-2.2664622542	-1.0034662858	-0.296626
H	 0.7609219862	 1.6052804951	 0.0096797877	 0.307003
H	-2.7944063903	 0.4409909751	 0.9023750553	 0.124699
H	-2.8018653711	 0.398647841	-0.8745870656	 0.136442
H	-4.2861896491	-1.6593104999	-0.1132350696	 0.089277
H	-2.2579481226	-1.9235873771	 2.0788117278	 0.106531
H	-2.743312517	-3.4043618714	 1.1580606198	 0.11911
H	-0.4952156044	-2.8372423261	-0.1720066491	 0.097923
119.6181	213.669	312.8956	398.5359	431.6622	463.1032	549.2945	607.3209	674.5307	810.4455	825.4536	837.5536	864.8967	903.9911	942.3408	968.6595	980.1167	1019.9561	1043.7026	1082.0109	1129.2084	1186.3577	1194.8684	1221.8796	1242.3946	1279.9479	1299.7917	1315.9172	1408.3121	1462.2878	1486.5479	1794.2576	3066.0555	3070.0204	3114.9037	3134.8825	3148.2475	3162.8159	3814.4589
ON=C1CC2CC1O2	ON=C1C[C@@H]2C[C@H]1O2	
InChI=1S/C5H7NO2/c7-6-4-1-3-2-5(4)8-3/h3,5,7H,1-2H2	InChI=1S/C5H7NO2/c7-6-4-1-3-2-5(4)8-3/h3,5,7H,1-2H2/t3-,5-/m1/s1
