14
gdb 221	4.64233	2.79473	2.74828	2.8519	53.67	-0.2675	0.0349	0.3024	580.9124	0.119019	-266.630629	-266.623452	-266.622508	-266.660779	25.93	
C	-0.0302820107	 1.5378655296	 0.0016375561	-0.384891
C	-0.0008413784	-0.0001622876	 0.0124221714	 0.098384
C	 0.7435365011	-0.5252770462	 1.2520297336	-0.384881
N	-1.3839489233	-0.4920065964	 0.0568684808	-0.507595
C	 0.7047179835	-0.4750268618	-1.2076008124	 0.247615
N	 1.2144649678	-0.8663154244	-2.1694214505	-0.341732
H	 0.9826093459	 1.9475186312	-0.0076900481	 0.134065
H	-0.5567438524	 1.9118210407	-0.8814389019	 0.128535
H	-0.5548225434	 1.8870846648	 0.8944489902	 0.134943
H	 0.2214331285	-0.1824110955	 2.1487187377	 0.134934
H	 0.7674756115	-1.6189943529	 1.2585015376	 0.128526
H	 1.7740606173	-0.1626362934	 1.2711171916	 0.13406
H	-1.8904688458	-0.1825032691	-0.7683201915	 0.23902
H	-1.3932100915	-1.5082403191	 0.0350929053	 0.239019
183.3206	190.2382	210.2026	261.8166	314.1649	353.5835	393.9851	399.03	588.6031	589.6546	696.6631	871.487	891.5681	946.589	1014.222	1025.8701	1078.2469	1216.6297	1244.1923	1336.7403	1396.9943	1417.0999	1479.5111	1481.7846	1492.6924	1503.1708	1663.0612	2338.8642	3045.4009	3049.0994	3120.289	3122.7182	3133.4947	3138.5744	3487.2087	3566.5151
CC(C)(N)C#N	CC(C)(N)C#N	
InChI=1S/C4H8N2/c1-4(2,6)3-5/h6H2,1-2H3	InChI=1S/C4H8N2/c1-4(2,6)3-5/h6H2,1-2H3
