17
gdb 1266	6.34523	1.04933	0.94243	1.2842	70.02	-0.2409	0.0361	0.277	1243.8513	0.145957	-309.688611	-309.679458	-309.678514	-309.724025	31.032	
C	 0.0019524528	 1.5383178378	 0.0143035322	-0.374088
C	-0.0183706932	-0.0027364215	-0.0332326384	-0.122514
C	-1.4589992998	-0.5476654852	 0.0279528089	-0.373751
C	 0.6834717888	-0.4979191494	-1.2177539146	 0.110395
C	 1.2468788749	-0.9041395929	-2.201481722	 0.046773
C	 1.93899689	-1.3768363989	-3.3935088967	-0.213848
O	 1.9771249629	-2.8003160697	-3.3947927072	-0.409524
H	 1.0263306292	 1.9197380036	 0.0010827564	 0.122659
H	-0.5271414995	 1.9573232881	-0.8472591274	 0.122877
H	-0.4889925823	 1.8951195148	 0.9253377183	 0.112024
H	 0.5172904384	-0.3709878973	 0.8530565039	 0.1053
H	-2.0409339231	-0.1942189476	-0.828860985	 0.122512
H	-1.4661995997	-1.6405224345	 0.0139318672	 0.127548
H	-1.9542091175	-0.2086986277	 0.9437112851	 0.110077
H	 1.4207243992	-0.9939922852	-4.2882338969	 0.112755
H	 2.9568767958	-0.9534003051	-3.4121852185	 0.113108
H	 2.4414897529	-3.0723919792	-4.1930191453	 0.287698
10.1558	90.4144	130.7503	200.7578	226.0488	227.1486	261.2339	301.252	357.1078	486.6299	522.2504	567.4948	706.9724	877.7758	931.8175	964.922	1028.6478	1028.9976	1075.8215	1119.8342	1146.8662	1204.8343	1246.2482	1256.7428	1326.5808	1351.6009	1395.1488	1417.712	1459.5032	1485.7393	1488.9696	1498.2868	1505.0232	1510.5145	2368.5423	2959.0797	2975.7656	3004.6595	3036.0271	3039.3788	3106.6769	3111.664	3118.749	3121.5379	3815.932
CC(C)C#CCO	CC(C)C#CCO	
InChI=1S/C6H10O/c1-6(2)4-3-5-7/h6-7H,5H2,1-2H3	InChI=1S/C6H10O/c1-6(2)4-3-5-7/h6-7H,5H2,1-2H3
