16
gdb 2433	5.50195	2.77682	2.39851	1.8309	63.72	-0.2193	0.0852	0.3045	626.1898	0.138143	-288.564752	-288.558908	-288.557964	-288.593906	23.403	
C	-0.0466301302	 1.4831590422	 0.0291659787	-0.509679
C	 0.0584350587	-0.0121162951	 0.0016138773	 0.329936
C	 0.9081509501	-0.9023526438	-0.8926807481	-0.219071
N	 0.0407889481	-2.0858705147	-0.5091226854	-0.169155
C	 0.3881685536	-2.2396597523	 0.9600888827	-0.175339
C	-0.2731973507	-0.9000167298	 1.2258222734	-0.126595
C	-1.0233542924	-1.0528007293	-0.0680732667	-0.071569
H	 0.8574877104	 1.938760006	 0.4495724263	 0.122479
H	-0.186875053	 1.8890019541	-0.9791586798	 0.121236
H	-0.8950408673	 1.8116170482	 0.6389796093	 0.12088
H	 0.767276837	-0.679909789	-1.9548500914	 0.102728
H	 1.9773240424	-1.0322326159	-0.6836117588	 0.091729
H	-0.1741770402	-3.0796053101	 1.3772766434	 0.107172
H	 1.4569095687	-2.3753097933	 1.164176359	 0.094871
H	-0.6184844745	-0.4616417483	 2.1545560604	 0.085875
H	-2.0668663308	-1.0559918988	-0.3505328004	 0.094503
210.6286	247.9746	289.0142	434.5771	476.4662	601.3884	717.5054	776.0078	826.5739	840.9808	874.6862	887.9745	917.9691	952.909	977.2947	1002.3781	1037.8204	1078.4209	1093.5147	1131.8084	1146.6109	1161.5359	1192.0554	1231.0534	1243.6618	1291.7465	1313.8014	1408.7313	1431.3409	1487.9602	1499.7561	1502.7026	1522.7657	3020.0476	3023.3613	3033.393	3082.56	3085.1702	3093.0892	3093.4454	3183.1059	3214.1859
CC12CN3CC1C23	C[C@@]12CN3C[C@@H]1[C@@H]23	
InChI=1S/C6H9N/c1-6-3-7-2-4(6)5(6)7/h4-5H,2-3H2,1H3	InChI=1S/C6H9N/c1-6-3-7-2-4(6)5(6)7/h4-5H,2-3H2,1H3/t4-,5+,6-/m1/s1
