19
gdb 1341	4.9025	1.71312	1.55301	0.965	68.75	-0.2406	0.0932	0.3339	897.6244	0.169391	-310.901659	-310.893126	-310.892182	-310.933912	31.118	
C	 0.059946234	 1.2160004511	-0.4130853947	-0.230897
O	-0.1354151069	 0.1623580006	 0.507111967	-0.237232
C	-1.3474770483	-0.4986706214	 0.3276409549	 0.105087
C	-1.4625838064	-1.5661129393	-0.7399516099	-0.360825
C	-1.429514287	-1.9420244685	 0.7345688623	 0.301878
C	-0.1795492836	-2.6142995784	 1.26807534	-0.444542
C	-2.7234207769	-2.4140823803	 1.3701863263	-0.450836
H	 1.032617946	 1.6620069872	-0.191801197	 0.124925
H	 0.0550039695	 0.8550050054	-1.4517182047	 0.108048
H	-0.7167142198	 1.9898508666	-0.3137312439	 0.104304
H	-2.222495797	 0.1302541325	 0.5079599698	 0.075674
H	-2.3938729985	-1.6634692154	-1.2887078887	 0.104086
H	-0.5687541048	-1.7687872467	-1.3211926264	 0.111619
H	 0.7217497677	-2.1879748232	 0.8241687412	 0.126436
H	-0.1044952558	-2.4896781156	 2.3546137719	 0.113444
H	-0.1988092547	-3.6895999906	 1.0565546471	 0.108329
H	-2.8789099073	-3.4843962089	 1.1900886878	 0.114493
H	-2.7096925259	-2.257191563	 2.4551743568	 0.116069
H	-3.5902503744	-1.8814913721	 0.9659992803	 0.109938
100.3095	169.4758	175.4186	202.0653	228.7583	252.2823	310.0043	368.3567	382.0249	475.4385	520.406	700.8575	827.5743	881.0851	921.0086	974.7908	978.4014	1012.3098	1039.381	1067.7931	1082.6774	1123.7525	1159.2573	1181.0917	1185.4497	1236.9761	1292.6516	1337.0884	1404.9927	1412.0145	1422.5133	1471.8053	1483.2038	1484.9386	1490.0311	1492.3456	1502.5635	1508.1681	1517.3666	2980.7611	3020.3265	3028.7683	3031.3027	3069.8397	3080.8995	3084.2275	3096.4796	3115.5209	3123.9548	3132.7909	3212.6309
COC1CC1(C)C	CO[C@H]1CC1(C)C	
InChI=1S/C6H12O/c1-6(2)4-5(6)7-3/h5H,4H2,1-3H3	InChI=1S/C6H12O/c1-6(2)4-5(6)7-3/h5H,4H2,1-3H3/t5-/m0/s1
