16
gdb 2685	9.04668	1.01294	0.95911	4.5781	62.7	-0.2469	0.0106	0.2575	1202.5444	0.1352	-362.899149	-362.890643	-362.889698	-362.933235	28.231	
C	 0.0182051076	 1.3208176134	 0.0542166541	-0.249631
O	 0.0394558564	-0.0908502769	-0.1284455391	-0.192017
C	-1.1469495917	-0.7125616947	-0.0060533713	 0.136881
N	-1.2417843757	-1.9556184229	-0.1740598279	-0.232717
C	-2.5489180424	-2.5748828526	-0.0447913186	-0.158365
C	-2.7946271281	-3.4473306198	-1.2803085779	-0.035443
O	-1.7627942625	-4.3941807792	-1.4484450231	-0.422141
H	 1.0516193747	 1.6567355559	-0.0356307258	 0.149959
H	-0.5881651298	 1.8153012719	-0.7140676006	 0.130136
H	-0.3621595521	 1.5915253989	 1.0464958934	 0.129655
H	-1.9884776161	-0.0506794922	 0.2521191464	 0.077402
H	-2.5366103142	-3.2258616738	 0.8386901039	 0.115123
H	-3.3671182626	-1.8452028064	 0.0785157893	 0.078903
H	-3.7333166236	-4.0009601686	-1.167678262	 0.100511
H	-2.8943310977	-2.7948239873	-2.164524659	 0.079391
H	-0.9416422322	-3.9043821657	-1.3066800017	 0.292353
37.9593	77.223	108.9322	150.9749	217.3654	236.2996	357.0264	435.1897	479.4883	516.2232	593.2341	887.5165	896.768	990.3396	1038.0218	1085.6877	1094.2252	1126.4202	1176.7071	1177.8189	1227.2132	1257.1624	1283.6841	1368.1243	1384.3217	1412.7132	1444.4786	1481.3877	1486.2549	1494.6779	1500.5977	1509.8235	1778.9164	2955.3529	2964.5753	2994.3958	3018.4242	3044.029	3068.0494	3080.9016	3148.0887	3759.5039
COC=NCCO	COC=NCCO	
InChI=1S/C4H9NO2/c1-7-4-5-2-3-6/h4,6H,2-3H2,1H3	InChI=1S/C4H9NO2/c1-7-4-5-2-3-6/h4,6H,2-3H2,1H3
