17
gdb 1246	7.08814	1.17517	1.06631	4.1615	66.01	-0.2293	0.0361	0.2654	1089.5602	0.147662	-305.900638	-305.892269	-305.891325	-305.933679	28.992	
C	 0.0715115674	 1.4913150006	 0.0699145525	-0.323996
N	-0.0219258638	 0.038854467	 0.0195671813	-0.05534
C	 0.7073345671	-0.5695287076	 1.1241912831	-0.320073
C	-1.3941750348	-0.4407035505	-0.0463341145	-0.128866
C	-2.0099171145	-0.2143718573	-1.4436244157	-0.34605
C	-3.3508215113	-0.7829064761	-1.5452123491	 0.258707
N	-4.4101890277	-1.2405225897	-1.6063339873	-0.30542
H	 1.1241755161	 1.7885563076	 0.0714550771	 0.125623
H	-0.3943844574	 1.9430731801	-0.8101751889	 0.119349
H	-0.4075029552	 1.922817506	 0.9695983715	 0.098402
H	 0.2990068027	-0.3032491769	 2.1174703314	 0.09775
H	 0.687271081	-1.6592601355	 1.029381791	 0.123051
H	 1.7521049394	-0.2455387555	 1.0943199725	 0.122697
H	-1.3909730618	-1.5163692125	 0.1523892701	 0.122105
H	-2.0457615795	 0.0226122624	 0.7182107956	 0.099409
H	-2.0724369828	 0.8530727524	-1.677711078	 0.152494
H	-1.3625949349	-0.6713380246	-2.1992123625	 0.160157
58.0762	99.4059	131.7768	235.9831	251.054	281.7125	360.7968	395.0367	410.7761	460.9805	544.4838	780.9579	857.7111	958.3534	1025.16	1061.2537	1064.2903	1074.5273	1122.0566	1172.1173	1200.1486	1260.3389	1304.1904	1311.9345	1337.9585	1409.6245	1446.7627	1469.046	1476.232	1484.8761	1494.0482	1500.2104	1507.8504	1513.9592	2362.9642	2927.1652	2927.9759	2939.3634	3056.5959	3064.4055	3072.0191	3078.0281	3101.3606	3109.3928	3113.2893
CN(C)CCC#N	CN(C)CCC#N	
InChI=1S/C5H10N2/c1-7(2)5-3-4-6/h3,5H2,1-2H3	InChI=1S/C5H10N2/c1-7(2)5-3-4-6/h3,5H2,1-2H3
