13
gdb 2639	12.14742	0.93806	0.91634	2.2795	53.02	-0.2693	-0.0434	0.2258	1159.1455	0.099152	-381.615289	-381.607503	-381.606559	-381.649085	24.716	
O	 0.1222004986	-0.0386196677	-0.2487291153	-0.222379
C	 0.1328710191	 1.1378864402	-0.0007674727	 0.150713
C	 1.3301593009	 2.0466831691	-0.1886027545	-0.274497
C	 1.0186624211	 3.1984322154	-1.1490102599	-0.095113
O	 2.0558595604	 4.1803570381	-1.0973356682	-0.17274
C	 2.9111736081	 4.2565386918	-2.1387972761	 0.172535
O	 3.8248810809	 5.0217795229	-2.1653630377	-0.264764
H	-0.7745913352	 1.6492046504	 0.3974923913	 0.0819
H	 1.5846130866	 2.4826939726	 0.786591431	 0.144591
H	 2.1789378941	 1.4547329807	-0.5402124897	 0.134378
H	 0.8965393696	 2.8287723022	-2.1747268715	 0.128535
H	 0.0939980658	 3.7085799238	-0.8616741026	 0.134155
H	 2.6622245902	 3.5441433307	-2.9501747441	 0.082685
40.4427	62.9868	80.3999	154.2328	255.4883	352.602	381.9868	520.7927	668.3715	784.6507	866.0028	985.116	1037.4088	1045.7373	1094.6771	1123.3812	1161.0558	1257.2928	1282.8857	1335.0882	1408.0768	1430.4365	1432.0223	1467.19	1508.4195	1840.2884	1873.7525	2860.8554	2943.0415	3028.001	3037.8308	3084.6024	3117.3964
O=CCCOC=O	O=CCCOC=O	
InChI=1S/C4H6O3/c5-2-1-3-7-4-6/h2,4H,1,3H2	InChI=1S/C4H6O3/c5-2-1-3-7-4-6/h2,4H,1,3H2
