18
gdb 294	4.94405	3.06969	2.80861	0.0245	63.32	-0.2837	0.0812	0.3649	603.4335	0.165997	-235.699029	-235.692187	-235.691243	-235.728837	26.214	
C	-0.3509435857	 1.5915165921	-0.035652152	-0.447981
C	 0.0497994041	 0.1208797544	 0.0167935053	 0.366847
C	-1.1641544341	-0.78322194	-0.2119771472	-0.431066
C	 1.264985555	-0.2968904246	-0.8758000709	-0.243864
C	 1.8543885923	-1.0857853446	 0.3236012021	-0.207324
C	 0.8824964373	-0.3248024315	 1.2641569927	-0.243864
H	 0.5129699161	 2.2448786068	 0.1272830434	 0.105374
H	-0.7862056628	 1.8496653053	-1.0086948952	 0.109019
H	-1.0974401693	 1.8269530987	 0.7326046504	 0.109019
H	-1.6188576714	-0.5896936672	-1.1905711053	 0.108761
H	-0.8908234917	-1.843342206	-0.1769501959	 0.109372
H	-1.9305192864	-0.6124369624	 0.5531187715	 0.108761
H	 1.0379349483	-0.8579393594	-1.7870853891	 0.089192
H	 1.8843291959	 0.5635997428	-1.1469524127	 0.091867
H	 1.632588927	-2.1549021595	 0.2700126668	 0.100868
H	 2.9235290972	-0.9714211067	 0.5161876686	 0.09396
H	 1.365698433	 0.5257528452	 1.7546924344	 0.091867
H	 0.3564124768	-0.9076732233	 2.0259090031	 0.089192
130.7305	224.7643	267.2215	297.3562	344.0408	384.1565	388.8109	605.791	708.5588	785.9635	867.3474	876.0382	919.1237	943.7857	951.273	985.469	988.0889	1008.9093	1088.0942	1185.7161	1207.0104	1225.6278	1235.6582	1257.2057	1278.3235	1298.4151	1315.7625	1401.5275	1419.3574	1475.486	1480.0463	1483.8889	1491.3317	1502.4124	1506.8002	1508.7013	3014.4498	3020.0506	3042.4438	3046.9323	3061.3958	3078.1742	3085.2275	3085.2657	3090.0885	3091.4647	3094.4411	3115.4234
CC1(C)CCC1	CC1(C)CCC1	
InChI=1S/C6H12/c1-6(2)4-3-5-6/h3-5H2,1-2H3	InChI=1S/C6H12/c1-6(2)4-3-5-6/h3-5H2,1-2H3
