15
gdb 4465	3.57062	1.80118	1.20914	1.6956	64.48	-0.1698	0.0576	0.2275	953.6595	0.119841	-396.027821	-396.019584	-396.01864	-396.060207	29.908	
C	-0.0221596856	 1.5464716858	 0.1135387399	-0.514516
C	 0.0146652409	 0.064254833	-0.0076698506	 0.250021
C	 0.0487206499	-0.7790148863	-1.0856981303	 0.194515
N	 0.0828612707	-0.4490888223	-2.451102383	-0.601589
N	 0.1113665257	-2.1069855621	-0.6900725169	-0.412837
C	 0.1111101517	-2.0580149039	 0.6162672651	 0.436015
O	 0.1661054395	-3.1061498164	 1.4583497861	-0.428654
N	 0.0424714176	-0.8014930306	 1.1023506465	-0.361888
H	 0.7610475447	 1.9272233021	 0.7823357712	 0.122093
H	 0.1522371709	 1.9924921329	-0.8695668667	 0.138949
H	-0.9818111163	 1.9317908609	 0.4860844673	 0.119224
H	-0.6637312372	 0.1783610905	-2.7232562949	 0.238847
H	 0.0178164985	-1.2946466471	-3.0043111162	 0.243817
H	 0.2074649663	-3.8935359093	 0.9017428137	 0.311523
H	 0.0299022627	-0.5438222972	 2.0738465588	 0.264479
100.4674	147.1337	184.8182	244.4852	256.1494	307.0954	320.9264	396.0006	442.0494	526.6195	623.3894	650.1299	671.0668	724.1073	808.6848	823.2879	985.8526	1055.9562	1065.4795	1105.2471	1186.8565	1237.4522	1246.1953	1341.5586	1416.3764	1446.9767	1480.7099	1498.3628	1574.3142	1621.249	1645.7502	1683.9675	2998.412	3039.4202	3109.2152	3530.1628	3619.8124	3678.5126	3809.7375
CC1=C(N)N=C(O)N1	Cc1c(N)nc(O)[nH]1	
InChI=1S/C4H7N3O/c1-2-3(5)7-4(8)6-2/h5H2,1H3,(H2,6,7,8)	InChI=1S/C4H7N3O/c1-2-3(5)7-4(8)6-2/h5H2,1H3,(H2,6,7,8)
