13
gdb 1716	5.01651	2.13351	1.91106	0.5876	50.59	-0.2607	-0.0478	0.2129	681.1821	0.100506	-381.570969	-381.564358	-381.563413	-381.60161	23.676	
O	 0.1042531454	 1.4862721353	-0.0754869642	-0.468779
C	-0.0042685591	 0.1109500016	 0.021631477	 0.27002
C	 0.1357693762	-0.5438061793	 1.4282079246	-0.129257
O	-1.057154219	-1.3212464864	 1.2171737022	-0.266921
C	-1.4293220983	-0.5155312549	 0.0838910849	-0.129303
C	 0.8653292818	-0.5729894608	-1.0056908442	 0.120765
O	 1.5427220615	 0.0562120252	-1.7820613615	-0.277177
H	 0.728674444	 1.6549748629	-0.8004194131	 0.29621
H	 1.0108788787	-1.1706849509	 1.6324076079	 0.112856
H	 0.0209199562	 0.2076967689	 2.2197495303	 0.121704
H	-2.1787229285	 0.247444888	 0.3303478114	 0.121703
H	-1.7759658733	-1.1203466165	-0.7614056691	 0.112857
H	 0.8427476545	-1.6808658132	-1.0024072762	 0.115322
117.1961	125.3804	297.2267	301.3469	380.3907	410.535	523.0564	529.0465	776.174	845.567	900.0411	910.4822	978.6124	1015.8601	1025.7558	1093.4126	1144.342	1145.1205	1171.6879	1287.635	1292.5361	1371.522	1383.5898	1445.1354	1498.5568	1527.5642	1812.3062	2945.7729	3013.3568	3023.2328	3074.6905	3074.9052	3674.906
OC1(COC1)C=O	OC1(COC1)C=O	
InChI=1S/C4H6O3/c5-1-4(6)2-7-3-4/h1,6H,2-3H2	InChI=1S/C4H6O3/c5-1-4(6)2-7-3-4/h1,6H,2-3H2
