11
gdb 4293	4.26462	2.03656	1.37834	5.8079	56.15	-0.2572	-0.0456	0.2117	797.543	0.074002	-430.750178	-430.744028	-430.743084	-430.780795	22.611	
O	 0.0322378131	 1.2994489076	 0.0077001291	-0.379552
C	-0.0620574507	-0.0242568436	 0.0011525377	 0.499032
N	-1.1714625097	-0.6255254223	 0.0041446381	-0.31725
C	-1.1587411574	-2.0286880335	-0.003234191	 0.372676
N	-2.2535618058	-2.6712078824	-0.0012994657	-0.488801
N	 0.1071496823	-2.69417002	-0.0138319636	-0.278771
C	 1.147718786	-1.9851864059	-0.0158190334	 0.121782
O	 1.1838866846	-0.6079187292	-0.008803597	-0.237792
H	 0.9660484287	 1.5477200722	 0.0039181094	 0.31988
H	-2.0424672162	-3.6697055623	-0.0080033278	 0.229478
H	 2.1546821451	-2.3904301006	-0.0235104158	 0.159319
88.3466	201.867	384.3834	414.4467	442.02	532.2123	556.2393	591.2671	719.9305	788.4245	790.9769	903.6831	917.1333	936.607	958.6798	1039.54	1135.0881	1265.0939	1326.7546	1379.7333	1405.0058	1682.6699	1724.3205	1811.8017	3198.1892	3490.8001	3797.8731
OC1=NC(=N)N=CO1	OC1=N[C@@H]([NH])N=CO1	
InChI=1S/C3H3N3O2/c4-2-5-1-8-3(7)6-2/h1H,(H2,4,6,7)	InChI=1S/C3H4N3O2/c4-2-5-1-8-3(7)6-2/h1-2,4H,(H,6,7)/t2-/m0/s1
