13
gdb 586	14.44522	1.59752	1.57509	1.9282	59.57	-0.229	0.0408	0.2698	786.3624	0.107787	-249.301818	-249.294959	-249.294015	-249.334039	22.736	
C	-0.0130723397	 1.4653742941	-0.0046220498	-0.49779
C	 0.0014079831	 0.0100957911	 0.0136145289	 0.050114
C	 0.0182874194	-1.1951319549	 0.0323561937	 0.09126
C	 0.0290107088	-2.6311008076	 0.0261107125	-0.153803
C	-0.4620092062	-3.3890943097	 1.2162451726	-0.227074
N	-1.2492393746	-3.3866311731	-0.0208586385	-0.308552
H	 1.0053716471	 1.8693071111	-0.0132201334	 0.151651
H	-0.5293298919	 1.850723108	-0.8910161413	 0.149671
H	-0.5207246553	 1.8700155095	 0.8779555994	 0.148704
H	 0.8097080576	-3.0885782949	-0.5766190595	 0.113875
H	-0.0015002836	-4.3410260505	 1.4653331081	 0.123067
H	-0.8109576811	-2.8092038515	 2.0654393861	 0.121032
H	-2.0172180137	-2.7251424417	 0.0671358212	 0.237845
13.0848	128.1029	141.4116	308.2417	316.8626	496.3167	524.472	696.2111	812.6163	876.0209	960.1343	994.6626	1051.3607	1053.2984	1085.5656	1121.2492	1157.3901	1221.6992	1258.4655	1299.988	1397.9533	1414.8651	1476.4754	1478.7335	1504.8124	2366.3066	3026.2993	3086.1129	3088.4509	3113.4338	3135.4306	3203.8412	3503.3573
CC#CC1CN1	CC#C[C@H]1CN1	
InChI=1S/C5H7N/c1-2-3-5-4-6-5/h5-6H,4H2,1H3	InChI=1S/C5H7N/c1-2-3-5-4-6-5/h5-6H,4H2,1H3/t5-/m0/s1
