19
gdb 1470	6.41145	1.25296	1.13614	0.744	73.38	-0.2584	0.0553	0.3136	1082.5284	0.169257	-273.763068	-273.754165	-273.753221	-273.796122	32.331	
C	-0.0644603722	 1.5488001125	-0.1017941193	-0.395821
C	 0.0209757733	 0.0240754036	 0.0171513565	-0.164933
C	 0.7139152198	-0.4817828708	 1.2949174311	 0.048108
C	-0.0362153142	-0.0880977606	 2.5729465372	-0.391604
C	 0.8956993775	-2.0187755796	 1.2096863521	-0.360822
C	 1.685987688	-2.5832193238	 2.2970367272	 0.299496
C	 2.348184006	-3.029066252	 3.1963372281	-0.443747
H	 0.9296124994	 2.0059820621	-0.0401205004	 0.114993
H	-0.5040459333	 1.8401923546	-1.0608017908	 0.113324
H	-0.6814129889	 1.9873458816	 0.6880749043	 0.120386
H	-0.9896041825	-0.4051882961	-0.0350010079	 0.092911
H	 0.5619504808	-0.368952608	-0.8536553958	 0.091515
H	 1.718880022	-0.0395707685	 1.335171004	 0.082045
H	-1.0656389756	-0.4674132616	 2.552632759	 0.108557
H	 0.4570934331	-0.5041927444	 3.4555398552	 0.130061
H	-0.0828478591	 0.9973029145	 2.6955422991	 0.114638
H	-0.0940011575	-2.4964411122	 1.1921738685	 0.124769
H	 1.3711444727	-2.2722001516	 0.2533710433	 0.124353
H	 2.9300442306	-3.4339498197	 3.9866059087	 0.19177
72.8578	102.6632	135.0899	220.8901	253.7126	268.9033	339.0386	350.9185	391.9286	424.27	537.7147	612.1226	633.5896	777.5639	826.5363	886.1205	896.2982	972.3158	978.2949	1011.897	1052.2991	1126.0487	1147.2144	1181.1245	1244.5044	1285.7187	1308.5863	1352.233	1377.0835	1382.6874	1412.0726	1414.5957	1467.5455	1484.9269	1497.1485	1499.5247	1507.5866	1512.951	2235.15	3004.5448	3005.9801	3015.8529	3030.0495	3033.8736	3039.4638	3049.1582	3098.7479	3099.6651	3109.0714	3120.161	3506.9092
CCC(C)CC#C	CC[C@@H](C)CC#C	
InChI=1S/C7H12/c1-4-6-7(3)5-2/h1,7H,5-6H2,2-3H3	InChI=1S/C7H12/c1-4-6-7(3)5-2/h1,7H,5-6H2,2-3H3/t7-/m1/s1
