13
gdb 3709	3.75327	3.30139	1.78029	3.8733	55.74	-0.2146	0.0035	0.2181	675.0011	0.102447	-340.629283	-340.622621	-340.621677	-340.659656	24.167	
C	-0.0579196667	 1.5000328633	 0.0145480079	-0.505406
C	-0.0169180451	 0.0072480582	 0.0275767872	 0.367817
N	-0.0125373305	-0.6819504676	-1.0897227755	-0.200647
O	 0.0147522252	-2.0152039427	-0.7244515164	-0.172269
C	 0.0393072486	-2.098951917	 0.6241844875	 0.006011
C	 0.0182413244	-0.8542959816	 1.1714187092	 0.054648
N	-0.0562270324	-0.443237548	 2.5088030949	-0.606628
H	 0.8401278386	 1.929003787	 0.475257014	 0.127745
H	-0.1211557266	 1.8631401466	-1.0127315133	 0.153887
H	-0.9225157808	 1.8713489179	 0.5752602078	 0.142677
H	 0.0614791116	-3.0942725311	 1.0384764325	 0.13513
H	 0.1955629522	-1.1732097192	 3.1623153717	 0.248244
H	 0.5066958716	 0.3770106541	 2.6969525524	 0.24879
140.0073	186.0084	233.9938	253.4628	347.7127	436.6144	602.3459	633.1394	682.2069	727.6274	755.8747	787.1212	911.966	960.7392	1026.2723	1066.1166	1117.6544	1140.7974	1253.2214	1313.4339	1409.5408	1450.9727	1481.5418	1492.6445	1540.6227	1648.6644	1686.4811	3030.8937	3084.6878	3140.1222	3267.9252	3534.4779	3624.0356
CC1=NOC=C1N	Cc1nocc1N	
InChI=1S/C4H6N2O/c1-3-4(5)2-7-6-3/h2H,5H2,1H3	InChI=1S/C4H6N2O/c1-3-4(5)2-7-6-3/h2H,5H2,1H3
