18
gdb 276	6.73269	1.92812	1.63086	0.9735	61.19	-0.2458	0.0875	0.3333	814.3456	0.163926	-272.839582	-272.831387	-272.830442	-272.871875	28.558	
C	 0.0701595169	 1.5073789591	 0.0074788581	-0.380408
C	-0.1114044528	 0.0014721073	-0.0983158575	-0.03492
O	 0.717366818	-0.4719942919	-1.1395233629	-0.254759
C	 0.7713465537	-1.8863285073	-1.2827274874	 0.163745
C	-0.5007135199	-2.4485410553	-1.9263915838	-0.391444
C	 2.0128337943	-2.1866168067	-2.1162965644	-0.385652
H	 1.1138627748	 1.7537734959	 0.2222880873	 0.12386
H	-0.2084543882	 1.9930678488	-0.9321387001	 0.125229
H	-0.5568836176	 1.913214353	 0.807188307	 0.111093
H	 0.1598415896	-0.4869047807	 0.8535366122	 0.081154
H	-1.169737774	-0.2364536385	-0.2899900744	 0.085502
H	 0.8928101509	-2.3393953209	-0.2832091568	 0.059714
H	-0.4208876609	-3.5338749	-2.045425425	 0.112307
H	-1.3881564282	-2.2471635222	-1.3197545428	 0.114622
H	-0.651862702	-2.002307565	-2.9147980639	 0.120398
H	 2.9041678136	-1.7769416021	-1.6340149896	 0.118658
H	 2.1454390531	-3.2653511388	-2.2416821916	 0.10941
H	 1.9216155887	-1.7315811647	-3.1078230644	 0.12149
54.5178	107.0943	192.1252	206.0974	241.0538	261.115	332.0162	398.108	473.1008	484.8286	813.8476	823.7512	888.2554	924.5794	941.2751	983.1533	1095.8189	1131.8113	1158.6167	1176.8869	1188.0033	1207.1773	1298.097	1362.3572	1369.1852	1396.5352	1402.0259	1412.9533	1438.2937	1480.012	1483.0252	1485.3869	1495.1766	1500.4164	1509.7488	1531.3932	2946.3242	2957.2084	2987.0541	3036.4508	3042.0499	3043.6333	3106.4268	3112.6774	3115.5759	3117.5899	3120.5204	3121.7577
CCOC(C)C	CCOC(C)C	
InChI=1S/C5H12O/c1-4-6-5(2)3/h5H,4H2,1-3H3	InChI=1S/C5H12O/c1-4-6-5(2)3/h5H,4H2,1-3H3
