12
gdb 4251	3.85382	2.10068	1.35958	4.1531	60.9	-0.2431	-0.0434	0.1997	818.2324	0.086016	-414.726994	-414.720684	-414.71974	-414.757661	23.588	
N	-0.0509517709	 1.2832761287	 0.3445409154	-0.515458
C	-0.0750224737	 0.0767461781	-0.0313252662	 0.399634
O	 1.118213635	-0.5541041531	-0.4324642105	-0.265996
C	 1.2241569796	-1.8448687253	-0.8562901455	 0.489901
O	 2.2799582205	-2.3080625122	-1.1830598801	-0.361849
N	 0.0363802241	-2.5513137905	-0.8779518014	-0.387348
C	-1.1769634021	-2.0130579664	-0.5025637672	 0.02197
C	-1.2674657411	-0.7426831312	-0.086918547	-0.180046
H	 0.8967788278	 1.6591197821	 0.3020223864	 0.234998
H	 0.1144282463	-3.5048519551	-1.1919753241	 0.280881
H	-2.0252978938	-2.6822520648	-0.5696406696	 0.147031
H	-2.2029227217	-0.2957963503	 0.2125366396	 0.136281
125.4644	137.6529	373.0748	382.6303	514.5009	537.6093	540.2101	552.7456	705.0758	763.2062	763.9181	807.6049	880.6559	934.7512	965.8734	976.7868	1053.2145	1123.057	1160.5826	1231.3554	1366.4613	1412.0236	1488.5246	1698.2116	1749.5974	1875.2078	3220.2744	3261.8696	3493.8816	3660.5428
N=C1OC(=O)NC=C1	[NH]C1=C[CH]NC(=O)O1	
InChI=1S/C4H4N2O2/c5-3-1-2-6-4(7)8-3/h1-2,5H,(H,6,7)	InChI=1S/C4H4N2O2/c5-3-1-2-6-4(7)8-3/h1-2,5H,(H,6,7)
