12
gdb 3703	3.7584	3.50681	1.83473	0.8337	51.65	-0.2301	0.0046	0.2347	645.063	0.091585	-356.705991	-356.699516	-356.698572	-356.736444	22.94	
C	-0.0672450852	 1.5404540255	-0.062224136	-0.497542
C	-0.0192957182	 0.0512101895	 0.0007361305	 0.244491
N	-0.138815521	-0.7348525255	-1.0721737934	-0.254169
N	-0.0426488136	-1.9626568483	-0.5868878148	-0.091755
N	 0.1331463218	-2.066500678	 0.7345521309	-0.303068
C	 0.1493550459	-0.7968590029	 1.1170352512	 0.307825
O	 0.3062201844	-0.4052817749	 2.3962821609	-0.423197
H	 0.8589111992	 1.9854309596	 0.3169446028	 0.137642
H	-0.2103256013	 1.8642589613	-1.094930234	 0.14287
H	-0.8876224826	 1.9388841527	 0.5442345437	 0.13764
H	-0.0981764997	-2.7748467092	-1.1768542214	 0.290975
H	 0.3977135903	-1.1991485597	 2.9372717696	 0.308289
78.2309	244.9041	254.7326	335.4359	370.1608	408.7239	475.6582	656.2411	701.715	746.6836	763.3257	969.4131	1019.711	1069.1701	1150.5286	1194.6797	1254.1864	1294.3025	1404.5149	1418.9462	1467.3448	1480.6197	1491.5988	1594.1999	1599.2547	3038.9148	3090.1006	3136.2583	3689.0215	3802.3819
CC1=NNN=C1O	Cc1n[nH]nc1O	
InChI=1S/C3H5N3O/c1-2-3(7)5-6-4-2/h1H3,(H2,4,5,6,7)	InChI=1S/C3H5N3O/c1-2-3(7)5-6-4-2/h1H3,(H2,4,5,6,7)
