12
gdb 1076	7.66386	1.97544	1.58613	1.1142	50.99	-0.2382	0.0079	0.2461	718.2476	0.091162	-360.532987	-360.526716	-360.525772	-360.563644	21.719	
O	-0.0174623648	 1.4208406839	 0.0077192942	-0.418726
C	 0.0001084209	 0.0036268835	 0.0021654715	-0.18593
C	-1.4122626618	-0.4745635648	 0.012506045	 0.254279
C	-2.560490345	 0.2422154389	 0.024236065	-0.093573
O	-3.6079860949	-0.641898114	 0.0303568569	-0.141068
C	-3.0182748794	-1.8556722281	 0.0215842192	 0.071575
N	-1.7262202935	-1.8312461883	 0.0109237697	-0.311749
H	 0.8916320387	 1.7323613957	 0.0014740643	 0.294176
H	 0.5116225651	-0.3968942686	-0.8878855686	 0.111007
H	 0.5268491604	-0.4037203263	 0.8801425112	 0.111021
H	-2.800290248	 1.2894620525	 0.029508198	 0.159486
H	-3.6712483877	-2.7142620945	 0.0243967136	 0.149503
64.8623	196.2249	206.8699	271.7845	457.4561	634.9303	674.4892	694.8364	774.3448	846.397	936.5651	997.2047	1050.455	1082.3141	1097.1398	1134.3201	1209.2426	1236.0861	1251.0605	1273.5732	1345.4813	1466.8918	1513.6231	1556.976	1643.8205	2969.8403	2990.7206	3276.3499	3318.2211	3843.2585
OCC1=COC=N1	OCc1cocn1	
InChI=1S/C4H5NO2/c6-1-4-2-7-3-5-4/h2-3,6H,1H2	InChI=1S/C4H5NO2/c6-1-4-2-7-3-5-4/h2-3,6H,1H2
