16
gdb 2468	4.61367	2.67915	2.41787	1.1203	59.68	-0.2046	0.0996	0.3042	637.9871	0.138133	-325.748658	-325.742382	-325.741438	-325.778585	23.878	
C	 0.654768698	 1.3610863221	 0.0282104907	-0.327097
N	-0.0145024879	 0.0642069439	 0.0037375968	-0.063668
C	 0.3031126448	-0.7498934806	-1.1812212965	-0.202427
C	 1.2566104159	-1.8305010793	-0.7035542923	 0.048054
O	 2.3521669512	-1.3101307301	 0.0616511179	-0.253157
C	 1.2166875393	-1.8375348847	 0.7610076175	 0.048054
C	 0.2383005278	-0.7613124919	 1.1963712682	-0.202427
H	 1.753758024	 1.2932545222	 0.0578454068	 0.11531
H	 0.3655213056	 1.9350241835	-0.8580388716	 0.114932
H	 0.3175161852	 1.9265687903	 0.9028516153	 0.114932
H	-0.5998116235	-1.2284554346	-1.590048757	 0.099802
H	 0.732320998	-0.1258004221	-1.9710720937	 0.11029
H	 1.4662515246	-2.7121498807	-1.3042966624	 0.093655
H	 1.3935216531	-2.7249636328	 1.3637890124	 0.093655
H	 0.6236799898	-0.1449418892	 2.0143848327	 0.11029
H	-0.6854293359	-1.243540106	 1.5507907552	 0.099802
116.9108	204.3942	306.8989	373.8229	401.3472	424.2195	680.7648	686.4306	832.2308	848.2297	869.4484	903.782	950.3892	992.9431	1014.0635	1044.9628	1048.6767	1117.4746	1147.744	1153.6391	1201.4537	1255.8792	1259.0942	1314.7306	1315.7787	1338.0274	1358.8303	1432.4054	1463.9528	1489.9302	1491.3018	1501.207	1516.0185	2979.9262	2988.2673	2994.0573	3065.3444	3075.6559	3079.8152	3099.03	3140.5292	3153.7186
CN1CC2OC2C1	CN1C[C@H]2O[C@H]2C1	
InChI=1S/C5H9NO/c1-6-2-4-5(3-6)7-4/h4-5H,2-3H2,1H3	InChI=1S/C5H9NO/c1-6-2-4-5(3-6)7-4/h4-5H,2-3H2,1H3/t4-,5+
