10
gdb 93	11.54185	4.90368	3.63309	2.5257	39.34	-0.2437	-0.0258	0.2179	359.152	0.07965	-247.190194	-247.185543	-247.184599	-247.217688	16.083	
O	 0.0005389127	 0.0066547452	-0.0974304919	-0.271404
C	-0.0137198975	 1.1921388135	 0.0313993622	 0.3892
C	-1.1066868148	 2.2661228441	 0.1724791349	-0.275945
N	-0.0354344507	 3.2512347509	 0.4853369318	-0.31366
C	 1.0532861538	 2.2952150584	 0.1438390396	-0.275945
H	-1.650479704	 2.4279617488	-0.7688605373	 0.124176
H	-1.8360678578	 2.1137052993	 0.9756741047	 0.13587
H	-0.0543460021	 4.0719360889	-0.1072705077	 0.227662
H	 1.8075420625	 2.1627796843	 0.9273624966	 0.13587
H	 1.5673793733	 2.4713027667	-0.8115268831	 0.124176
139.4633	413.2452	454.4913	658.4878	725.0018	744.1164	913.4754	989.1896	1008.8717	1063.4944	1081.9228	1092.5701	1184.4326	1236.6765	1306.8481	1369.6751	1458.5431	1484.9239	1920.0041	3007.3788	3015.1091	3069.1958	3070.0011	3555.383
O=C1CNC1	O=C1CNC1	
InChI=1S/C3H5NO/c5-3-1-4-2-3/h4H,1-2H2	InChI=1S/C3H5NO/c5-3-1-4-2-3/h4H,1-2H2
