13
gdb 2899	7.09484	1.8894	1.52039	3.161	58.88	-0.2491	-0.0663	0.1827	755.3957	0.101697	-344.465017	-344.458585	-344.457641	-344.495829	22.14	
O	-0.0452475145	-0.0160064273	-0.0091115445	-0.262464
C	 0.007868341	 1.1940819677	-0.01996647	 0.070536
C	 1.258668537	 1.9519241721	 0.0180085318	 0.22102
C	 1.3828633507	 3.2827364244	 0.0083732656	-0.189857
C	 2.8330486513	 3.6543376558	 0.057685869	-0.099939
O	 3.5390067854	 2.4210903258	 0.097442779	-0.267653
C	 2.6263210205	 1.321651528	 0.0749695473	-0.154683
H	-0.9141055485	 1.8146139562	-0.0603934777	 0.074714
H	 0.576067499	 4.0050982386	-0.0290680162	 0.124277
H	 3.1377137812	 4.2426838849	-0.8232465165	 0.118615
H	 3.0727102671	 4.2623064535	 0.9453210214	 0.11865
H	 2.7582377145	 0.7004141597	 0.9717246133	 0.123415
H	 2.8234053253	 0.6822806307	-0.7967629925	 0.123369
94.5701	123.7129	184.5414	281.7927	436.9473	486.7254	705.9829	782.843	820.6929	906.7191	922.9989	969.4314	1016.2627	1032.4761	1068.4405	1109.1042	1169.9936	1217.0536	1218.6236	1300.577	1380.0002	1389.3169	1421.4846	1507.3441	1524.0932	1692.3384	1783.8746	2891.2486	2969.8708	2984.2847	3004.9116	3028.5587	3213.1615
O=CC1=CCOC1	O=CC1=CCOC1	
InChI=1S/C5H6O2/c6-3-5-1-2-7-4-5/h1,3H,2,4H2	InChI=1S/C5H6O2/c6-3-5-1-2-7-4-5/h1,3H,2,4H2
