15
gdb 2046	4.43277	2.97719	2.23888	1.8302	56.75	-0.2535	0.0765	0.3299	628.3097	0.12452	-345.584667	-345.578458	-345.577514	-345.614261	24.69	
C	-0.1562119809	 1.6452323391	 0.0348662436	-0.467012
C	-0.011711415	 0.138077206	 0.0221247124	 0.484616
O	-1.2823453365	-0.4039899232	-0.168748507	-0.486565
C	 1.1483101009	-0.5965809442	-0.7430307216	-0.019823
C	 2.1694326764	-0.152145972	 0.3228182746	-0.233739
C	 0.8965549098	-0.6360574184	 1.0451237576	-0.019832
O	 0.856190036	-1.7923022231	 0.1017050589	-0.341474
H	 0.7897123006	 2.167383497	 0.1794168463	 0.119016
H	-0.5959407726	 1.975060395	-0.9109981853	 0.134267
H	-0.8420732378	 1.9368793804	 0.8356778472	 0.134263
H	-1.1405207055	-1.362864378	-0.1697895425	 0.285822
H	 1.282494229	-0.7686221983	-1.8119451531	 0.095429
H	 3.017210927	-0.8284765438	 0.427254058	 0.116131
H	 2.4580091548	 0.8971505657	 0.3866205711	 0.103482
H	 0.7315266138	-0.8549554121	 2.1010787398	 0.095419
163.5222	243.5028	327.8136	406.2973	412.4364	531.6997	625.5783	627.1764	691.7829	746.6607	767.0444	869.2673	876.0781	898.5823	974.6836	1011.8009	1025.9375	1088.6369	1118.6944	1135.2363	1137.0922	1164.5926	1207.0812	1222.2855	1273.1011	1293.3537	1394.4399	1437.3815	1479.4444	1489.9438	1504.285	3052.9519	3086.4233	3109.2384	3114.5178	3117.2976	3147.839	3164.4954	3719.6295
CC1(O)C2CC1O2	C[C@@]1(O)[C@H]2C[C@@H]1O2	
InChI=1S/C5H8O2/c1-5(6)3-2-4(5)7-3/h3-4,6H,2H2,1H3	InChI=1S/C5H8O2/c1-5(6)3-2-4(5)7-3/h3-4,6H,2H2,1H3/t3-,4+,5-
