16
gdb 4026	2.62891	1.75955	1.14087	3.2707	65.16	-0.2519	-0.038	0.2139	1032.5375	0.128956	-417.060638	-417.051394	-417.05045	-417.095408	32.426	
C	-0.022485709	 1.6366498588	 0.0074251478	-0.380789
C	-0.0369404212	 0.0965130915	 0.0455776484	-0.268961
C	-1.4348651526	-0.4511644931	 0.01264106	 0.260058
N	-2.1241762202	-0.713591701	-1.033313162	-0.183027
O	-1.4422268799	-0.4407735226	-2.2153169204	-0.381112
C	-2.1272314079	-0.6904199495	 1.3367432669	 0.376963
N	-3.3802464544	-1.203059638	 1.2578160762	-0.534034
O	-1.5649799403	-0.4263733511	 2.3857960947	-0.365104
H	 1.0067921285	 2.0057826774	 0.0361343754	 0.11789
H	-0.4949143353	 2.0103953539	-0.9051474922	 0.127366
H	-0.5545175741	 2.0464516048	 0.8702442063	 0.13605
H	 0.5172491137	-0.3020421609	-0.8078304727	 0.120746
H	 0.4323005523	-0.2467081714	 0.9697426393	 0.133468
H	-2.0754423936	-0.7074895641	-2.8912200084	 0.310946
H	-3.8048226027	-1.3622239029	 0.3603114799	 0.267752
H	-3.8985790232	-1.3418807218	 2.1078420309	 0.261789
37.4773	50.1947	172.5078	220.5982	222.5932	243.1659	285.0892	336.7583	419.0464	441.2564	492.3349	566.0945	626.4787	643.5121	745.8365	797.1463	814.2277	968.1908	1009.0123	1062.1449	1090.1058	1099.5235	1202.9767	1295.0275	1352.3235	1367.9316	1400.559	1423.8037	1471.8807	1499.37	1506.5934	1592.938	1713.9939	1783.7518	3044.5148	3071.6482	3114.3637	3117.9835	3136.3225	3606.5989	3748.9768	3810.481
CCC(=NO)C(N)=O	CCC(=NO)C(=O)N	
InChI=1S/C4H8N2O2/c1-2-3(6-8)4(5)7/h8H,2H2,1H3,(H2,5,7)	InChI=1S/C4H8N2O2/c1-2-3(6-8)4(5)7/h8H,2H2,1H3,(H2,5,7)
