15
gdb 4825	6.55608	1.27827	1.08413	3.3044	64.21	-0.2361	0.0016	0.2377	1058.0773	0.11875	-399.836626	-399.828703	-399.827758	-399.869488	27.587	
C	-0.0416796816	 1.413798555	 0.3409714723	-0.494881
C	-0.0293459523	-0.0168142053	-0.0493844514	 0.32134
C	-0.8848015121	-0.8484451001	-0.6891165798	-0.192948
N	-0.3228671969	-2.1202786106	-0.7724514639	-0.328005
C	 0.8250046674	-2.0012046583	-0.1901075363	 0.360874
C	 1.8291439345	-3.0951031358	-0.0127179034	-0.139522
O	 1.3586969736	-4.2958614899	-0.5701188782	-0.421139
O	 1.0857471648	-0.7610038847	 0.2781816046	-0.207711
H	 0.7859082515	 1.9636683328	-0.1206927286	 0.144974
H	-0.9790618465	 1.8734586197	 0.0200948697	 0.143857
H	 0.0462381057	 1.5351229967	 1.4262971895	 0.144978
H	-1.8594377242	-0.6288008934	-1.0947521332	 0.126502
H	 2.7787615903	-2.7955176446	-0.4835533272	 0.119789
H	 2.0401493569	-3.2231760652	 1.0607079646	 0.119823
H	 0.483889259	-4.1061073663	-0.9368642788	 0.302069
48.9364	144.1278	165.2368	187.6345	254.6207	301.6414	316.5288	466.0483	643.5785	671.906	683.2082	745.7945	844.4403	973.0557	985.5692	1039.1602	1043.6286	1068.4437	1109.3823	1159.1074	1228.6712	1239.0218	1246.5993	1312.7094	1363.8143	1418.6858	1471.9088	1477.3326	1493.3033	1513.6531	1618.0742	1654.4083	2980.7571	2994.7764	3034.4701	3087.1494	3131.56	3266.7783	3739.6453
CC1=CN=C(CO)O1	Cc1cnc(CO)o1	
InChI=1S/C5H7NO2/c1-4-2-6-5(3-7)8-4/h2,7H,3H2,1H3	InChI=1S/C5H7NO2/c1-4-2-6-5(3-7)8-4/h2,7H,3H2,1H3
