12
gdb 4635	5.3709	1.49467	1.16927	4.8139	64.76	-0.2212	-0.0598	0.1614	930.0882	0.084533	-414.692859	-414.686168	-414.685224	-414.723936	24.377	
N	-0.0641052642	 1.3015278049	 0.007590342	-0.591553
C	-0.005451766	 0.0414540071	 0.0010597356	 0.471034
N	-1.0999833626	-0.8211910621	 0.0026352266	-0.315565
C	-0.6690046213	-2.1193050855	-0.0060633916	-0.132932
C	 0.6844366947	-2.0926518169	-0.0131214437	 0.239365
O	 1.1056255851	-0.7704417524	-0.0088558105	-0.229209
C	 1.6288003103	-3.1868826166	-0.023519397	 0.063701
O	 2.8351251103	-3.0799113097	-0.0294319368	-0.282208
H	 0.8651475077	 1.7132969429	 0.0046751249	 0.239943
H	-2.0472878719	-0.4857494441	 0.0093680428	 0.28901
H	-1.3411224895	-2.9614196367	-0.0066436921	 0.174807
H	 1.1204838974	-4.1770630209	-0.0257214	 0.073606
126.6031	164.5436	183.4654	334.9363	444.6355	456.3748	506.0972	610.6249	703.7887	721.8739	765.1301	800.5429	817.9627	939.0704	971.6813	1002.5596	1043.7496	1105.868	1216.8303	1319.1327	1363.6725	1422.3078	1439.1355	1659.1197	1781.1956	1802.5287	2878.7576	3282.0987	3547.8598	3693.4792
N=C1NC=C(O1)C=O	[NH][C@@H]1NC=C(O1)C=O	
InChI=1S/C4H4N2O2/c5-4-6-1-3(2-7)8-4/h1-2H,(H2,5,6)	InChI=1S/C4H5N2O2/c5-4-6-1-3(2-7)8-4/h1-2,4-6H/t4-/m1/s1
