11
gdb 2568	3.14427	3.08322	1.73577	2.3741	54.02	-0.2663	-0.0466	0.2198	687.5349	0.075249	-343.19506	-343.188261	-343.187316	-343.225835	23.934	
O	-0.5742327066	 0.6880734522	-0.703126381	-0.230515
C	 0.3155436084	 0.8295302919	 0.0879683385	 0.116757
C	 1.4107029387	 1.8620010363	-0.0173619293	 0.098175
C	 1.8574449868	 2.461429956	 1.2709688662	-0.201229
O	 2.6180987241	 1.4433735919	 0.6582944172	-0.247084
C	 1.5543163041	 2.5824327651	-1.2509908361	 0.286514
C	 1.659222088	 3.1750285588	-2.2898789247	-0.398875
H	 0.4264096957	 0.199993607	 0.9981902441	 0.093735
H	 2.2782609277	 3.4639842218	 1.2353425169	 0.144336
H	 1.347321267	 2.1862268939	 2.1939456067	 0.130271
H	 1.7515750061	 3.695686975	-3.2113552886	 0.207915
122.0405	138.5169	213.517	275.7946	359.5848	446.4066	545.1706	583.983	636.8403	678.6959	743.9009	827.2949	883.2155	960.1513	1036.1121	1137.1679	1162.8238	1264.0626	1324.5485	1414.114	1512.9721	1843.8444	2249.7698	2900.7092	3084.5851	3184.506	3500.3448
O=CC1(CO1)C#C	O=C[C@]1(CO1)C#C	
InChI=1S/C5H4O2/c1-2-5(3-6)4-7-5/h1,3H,4H2	InChI=1S/C5H4O2/c1-2-5(3-6)4-7-5/h1,3H,4H2/t5-/m0/s1
