17
gdb 2044	4.21553	2.90709	2.1646	1.8593	64.1	-0.2346	0.0917	0.3264	674.4208	0.147654	-309.649998	-309.64326	-309.642316	-309.680057	26.489	
C	-0.1470424868	 1.5760313385	 0.0052140655	-0.478325
C	-0.0126209449	 0.0542438668	 0.0103669573	 0.36103
C	-1.375170808	-0.5960585461	-0.2195698341	-0.459845
C	 1.2017322366	-0.6373646394	-0.7046048735	 0.014188
C	 2.1800665243	-0.1018753433	 0.3671920362	-0.235866
C	 0.9132159841	-0.6568094717	 1.0598326469	 0.014197
O	 0.9977827954	-1.8283408326	 0.1548324797	-0.311752
H	 0.7896927807	 2.1119447505	 0.1634957577	 0.116347
H	-0.5636897172	 1.9120130349	-0.9510569809	 0.120667
H	-0.8464871935	 1.8929235356	 0.7870690066	 0.120674
H	-1.797005918	-0.2727737502	-1.1782311646	 0.109212
H	-1.2983293599	-1.6828237231	-0.2187435399	 0.139994
H	-2.0815914864	-0.291557784	 0.5612885264	 0.109207
H	 1.3681481075	-0.8137835855	-1.7689786964	 0.087451
H	 3.064368929	-0.7240238808	 0.5049290542	 0.108226
H	 2.40774742	 0.9625553056	 0.4161678069	 0.097142
H	 0.732586037	-0.8566098151	 2.117737962	 0.087451
158.0385	219.7347	229.9356	351.4741	371.9128	394.327	533.6371	608.2236	680.5916	723.6687	781.7918	856.9268	878.1945	912.2612	950.7695	966.0612	1004.1982	1026.4495	1034.5442	1117.5803	1122.4079	1166.104	1177.3282	1211.7253	1219.8592	1230.615	1277.1797	1320.8089	1396.7914	1420.2788	1478.7758	1488.2946	1496.2655	1513.4454	1516.045	3029.713	3036.5838	3081.9736	3086.8305	3089.4267	3097.3265	3107.6356	3131.0607	3152.7777	3162.9748
CC1(C)C2CC1O2	CC1(C)[C@H]2C[C@@H]1O2	
InChI=1S/C6H10O/c1-6(2)4-3-5(6)7-4/h4-5H,3H2,1-2H3	InChI=1S/C6H10O/c1-6(2)4-3-5(6)7-4/h4-5H,3H2,1-2H3/t4-,5+
