16
gdb 1528	8.25695	1.16933	1.05725	2.2747	58.61	-0.2445	0.035	0.2795	1087.5512	0.135431	-362.941094	-362.932206	-362.931261	-362.975697	29.342	
C	 0.0675686766	 1.4210564553	 0.0706973178	-0.333074
N	-0.0884485104	-0.0187017476	 0.0098635335	-0.313379
C	-1.3003251254	-0.6225018194	-0.1632982826	 0.416181
O	-2.3464958958	-0.0002304513	-0.2449049019	-0.378915
C	-1.2445070468	-2.1425422199	-0.2684239163	-0.303262
C	-2.5336545318	-2.7896038801	 0.2213211331	-0.065204
O	-2.4153353728	-4.1871385523	-0.0043368468	-0.4262
H	 0.5204033806	 1.7335397787	 1.018234893	 0.124436
H	 0.6875991537	 1.7934704925	-0.7528312171	 0.124594
H	-0.9289833909	 1.8567177416	-0.0089555316	 0.171839
H	 0.7319263128	-0.5983237083	 0.0688078105	 0.244886
H	-1.0987186213	-2.4118366912	-1.3221655716	 0.13697
H	-0.3892151544	-2.5502696815	 0.2818298845	 0.10617
H	-2.6800336108	-2.5660445703	 1.289463835	 0.092049
H	-3.3796334986	-2.3512346196	-0.3221366839	 0.116087
H	-3.2467831947	-4.5991847266	 0.2470382343	 0.286822
31.1397	83.5008	85.0631	136.544	187.6596	261.5401	308.3799	355.4296	434.1386	460.6364	624.6336	724.291	811.8708	906.1117	1009.8543	1059.8319	1080.0704	1099.6409	1154.6111	1170.1065	1205.4459	1226.8359	1260.376	1304.8134	1361.734	1437.9639	1456.7685	1471.0737	1493.6975	1500.6438	1527.0685	1561.1314	1773.5184	2983.7478	3025.6996	3034.42	3044.0649	3076.8289	3079.3476	3153.7328	3650.3267	3832.8304
CNC(=O)CCO	CNC(=O)CCO	
InChI=1S/C4H9NO2/c1-5-4(7)2-3-6/h6H,2-3H2,1H3,(H,5,7)	InChI=1S/C4H9NO2/c1-5-4(7)2-3-6/h6H,2-3H2,1H3,(H,5,7)
