8
gdb 490	54.35121	1.34851	1.31587	3.248	59.66	-0.275	-0.0922	0.1828	801.3233	0.047327	-266.777425	-266.77129	-266.770346	-266.806816	20.052	
O	-0.0961893875	-0.0394526468	 0.0026927664	-0.215428
C	-0.0170516978	 1.1674086443	 0.0077875812	-0.023512
C	 1.2248090754	 1.8970596359	 0.0000584091	 0.355854
C	 2.2556778252	 2.5376456492	-0.0061364692	-0.228163
C	 3.4095362284	 3.2511562661	-0.0130292764	 0.306246
C	 4.4361679621	 3.8872148747	-0.0189920325	-0.5152
H	-0.9187118927	 1.8115859511	 0.0191850313	 0.110078
H	 5.340199787	 4.4455033455	-0.0242523198	 0.210123
103.4893	134.5126	255.5341	322.416	497.1474	542.7568	576.968	600.166	645.0533	796.899	1017.23	1169.6783	1418.4149	1758.491	2173.5652	2332.5397	2930.2961	3499.0502
O=CC#CC#C	O=CC#CC#C	
InChI=1S/C5H2O/c1-2-3-4-5-6/h1,5H	InChI=1S/C5H2O/c1-2-3-4-5-6/h1,5H
