14
gdb 2080	4.82666	2.60632	1.79582	3.6296	54.11	-0.2373	0.0272	0.2644	678.7849	0.115901	-361.745138	-361.738977	-361.738033	-361.775241	22.737	
O	-0.0212694671	-0.0617280496	-0.0151847341	-0.370856
C	-0.0091270959	 1.1539542222	 0.0121294652	 0.375492
C	-1.3114055787	 1.9561000026	 0.0541014829	-0.185785
O	-1.1739125435	 3.3215950969	 0.4009861646	-0.241549
C	-0.1325196851	 3.9372546501	-0.3291065863	-0.076076
C	 1.2095465338	 3.3394616086	 0.0761278955	-0.154806
N	 1.1378086862	 1.8904775637	-0.0445229614	-0.313689
H	-1.7920751492	 1.8442982136	-0.9321509261	 0.121163
H	-1.9647485646	 1.4932582995	 0.7963189572	 0.145072
H	-0.2901692057	 3.8131786639	-1.4131754322	 0.099517
H	-0.1618057258	 5.0041690247	-0.0940100012	 0.119094
H	 2.0031824308	 3.7229437726	-0.5756192209	 0.113977
H	 1.4461357644	 3.6386927745	 1.1068061586	 0.118683
H	 1.9891252104	 1.3475454167	-0.0202769118	 0.249761
110.5269	175.4901	339.487	421.7855	466.0341	490.2169	517.2719	642.1856	686.9364	814.8695	893.3897	950.947	996.2996	1042.0181	1102.9999	1131.	1152.3469	1240.8955	1264.8926	1309.955	1342.9169	1366.8521	1395.0645	1415.2198	1466.9765	1481.3085	1495.8864	1519.0509	1799.4135	2973.6683	2978.7338	3006.3204	3059.2715	3101.4282	3118.0009	3605.054
O=C1COCCN1	O=C1COCCN1	
InChI=1S/C4H7NO2/c6-4-3-7-2-1-5-4/h1-3H2,(H,5,6)	InChI=1S/C4H7NO2/c6-4-3-7-2-1-5-4/h1-3H2,(H,5,6)
