15
gdb 3191	4.29503	3.59521	3.17663	0.0179	63.58	-0.2187	-0.0005	0.2181	544.6956	0.128338	-271.369084	-271.364215	-271.363271	-271.397203	21.082	
C	 0.0059772844	 1.546236118	 0.0103366815	-0.188646
C	 1.5640250666	 1.6020375279	-0.0048025411	-0.103904
C	 1.8308003905	 0.7178979955	 1.232341239	-0.071719
C	 0.9060697145	-0.2413212679	 1.2366535937	-0.071721
C	 0.0072196786	-0.0128606273	 0.0024441916	-0.103904
C	 0.8814476187	-0.2287492192	-1.2515561303	-0.071721
C	 1.8061738176	 0.7304743997	-1.2558566678	-0.071719
H	-0.4324145271	 1.972921502	 0.9167764193	 0.092533
H	-0.4502260718	 1.982016507	-0.8828903588	 0.092533
H	 2.040421217	 2.5820246316	-0.0045642269	 0.0574
H	 2.6595867268	 0.8551952936	 1.9137061704	 0.095867
H	 0.8022742316	-1.0713948834	 1.9223646401	 0.095866
H	-0.9546482349	-0.5248081612	 0.0093763906	 0.0574
H	 0.7640212923	-1.0518624685	-1.9434311108	 0.095866
H	 2.6213247651	 0.8747345122	-1.9520703405	 0.095867
429.9386	453.2018	505.2612	549.3835	686.9708	720.8679	757.2662	782.0957	806.8165	887.8321	889.8354	898.8716	902.5805	925.6684	933.9837	947.6189	963.0211	1035.3831	1088.6646	1132.5311	1133.1926	1174.4972	1235.7403	1261.9414	1264.1069	1275.3996	1292.6859	1343.9403	1489.9373	1617.2044	1657.7117	3051.8093	3112.815	3116.8356	3119.3828	3208.0567	3209.6369	3234.2796	3236.8502
C1C2C=CC1C=C2	C1[C@H]2C=C[C@@H]1C=C2	
InChI=1S/C7H8/c1-2-7-4-3-6(1)5-7/h1-4,6-7H,5H2	InChI=1S/C7H8/c1-2-7-4-3-6(1)5-7/h1-4,6-7H,5H2/t6-,7+
