16
gdb 4838	4.61685	1.42685	1.16345	2.5795	68.64	-0.1958	0.025	0.2208	1038.5167	0.131447	-379.961985	-379.954022	-379.953078	-379.994736	28.792	
C	 0.2491380454	 1.5172717617	-0.0823152965	-0.377093
C	-0.0261223531	 0.0159665578	 0.1091941414	-0.286842
C	 0.6021599973	-0.5498492107	 1.3340063366	 0.380626
N	 0.0485751839	-1.0738717709	 2.3743501986	-0.295191
C	 1.1049648499	-1.4462601998	 3.2060389812	-0.197308
C	 2.2726998184	-1.1038204138	 2.6033377579	 0.334222
N	 3.6135842888	-1.1266077716	 2.9546560026	-0.597614
O	 1.9785035374	-0.5279176928	 1.4053532968	-0.204996
H	 1.3229488338	 1.7115720644	-0.1534527386	 0.129578
H	-0.2245787357	 1.8799990924	-0.9992202388	 0.115371
H	-0.1443219818	 2.09589846	 0.7585639554	 0.128934
H	-1.0993460309	-0.171872329	 0.1937312959	 0.133626
H	 0.3312546549	-0.5340715026	-0.7709902813	 0.115387
H	 0.9460403713	-1.923807493	 4.1588544565	 0.1057
H	 3.793705449	-1.738388947	 3.7390456184	 0.258174
H	 4.2208659614	-1.3601281952	 2.178245844	 0.257426
53.3936	133.0763	181.7709	201.2858	268.7602	316.3857	394.2087	454.6531	625.4407	661.7139	697.4404	735.7885	757.489	782.0613	793.32	956.1977	976.7819	1008.396	1072.9188	1088.6324	1105.2935	1151.7271	1240.4629	1288.9211	1295.4408	1357.8566	1405.7539	1424.4612	1472.0654	1497.0969	1506.8822	1620.426	1640.2463	1676.032	3026.8507	3043.1631	3101.3256	3115.5296	3125.155	3268.165	3537.0112	3638.8726
CCC1=NC=C(N)O1	CCc1ncc(N)o1	
InChI=1S/C5H8N2O/c1-2-5-7-3-4(6)8-5/h3H,2,6H2,1H3	InChI=1S/C5H8N2O/c1-2-5-7-3-4(6)8-5/h3H,2,6H2,1H3
