11
gdb 164	9.60877	6.57366	5.00982	1.8518	41.8	-0.2517	0.0951	0.3468	317.7261	0.091787	-231.102112	-231.097923	-231.096979	-231.128841	15.427	
C	-0.0392602399	 1.510408861	 0.0534970635	-0.238336
C	 1.5323753067	 1.5307220878	 0.0359816988	-0.238329
C	 1.5007902869	 0.001608406	-0.1059287002	 0.040966
O	 0.783892585	-0.5123442009	 1.0215991192	-0.243459
C	 0.0286013199	-0.0174537532	-0.0892888448	 0.040959
H	-0.5317924236	 1.8676447294	 0.9606974868	 0.11186
H	-0.4709947627	 2.0081617555	-0.8179865444	 0.105965
H	 1.93157189	 2.039295149	-0.8447135193	 0.105949
H	 2.0356290226	 1.9007210833	 0.9321207296	 0.111874
H	 2.2169697157	-0.6603244453	-0.5791735736	 0.101275
H	-0.6807011206	-0.6978534626	-0.5464289457	 0.101277
286.4463	470.1394	736.8062	769.3914	843.4628	847.2254	907.7636	925.0883	963.914	1001.1025	1008.0419	1085.8531	1153.7112	1214.7098	1214.7387	1239.5871	1240.3615	1284.5699	1391.1041	1464.49	1484.9957	3064.7361	3072.1506	3116.1969	3132.3086	3177.7804	3193.3762
C1CC2OC12	C1C[C@H]2O[C@@H]12	
InChI=1S/C4H6O/c1-2-4-3(1)5-4/h3-4H,1-2H2	InChI=1S/C4H6O/c1-2-4-3(1)5-4/h3-4H,1-2H2/t3-,4+
