16
gdb 4537	3.92665	1.66859	1.18758	3.1614	68.75	-0.1807	0.0443	0.225	987.3792	0.131448	-379.940942	-379.932694	-379.93175	-379.973586	30.149	
C	-0.0697763968	 1.4528294261	-0.0115057677	-0.330565
N	-0.0763037777	 0.0081184978	 0.0077636487	 0.026668
C	-0.077623128	-0.7993622424	-1.0960172429	-0.156393
C	 0.0487598917	-2.1087073928	-0.6706701997	 0.048055
N	 0.076471891	-3.3526059822	-1.3724807362	-0.625755
C	 0.1358064795	-2.0743103607	 0.7489212515	 0.305551
O	 0.2536780195	-3.1786831818	 1.5282880787	-0.454475
C	 0.0623494767	-0.7617025167	 1.1508067078	-0.208994
H	 0.9414544849	 1.8615404965	 0.1078389202	 0.13393
H	-0.477066833	 1.8042120378	-0.9622261411	 0.134978
H	-0.6975990626	 1.8421550848	 0.7955751419	 0.137574
H	-0.1656441582	-0.3813962277	-2.0869478863	 0.107902
H	 0.8584129798	-3.4118537449	-2.0165469413	 0.239648
H	-0.7689194927	-3.5073551484	-1.9119924196	 0.239738
H	 0.2608021229	-3.919137678	 0.902295639	 0.290152
H	 0.090514593	-0.3127093973	 2.129123297	 0.111987
80.3371	123.0114	158.6882	250.2737	253.6829	295.0044	331.8069	525.6083	544.2427	598.083	607.5958	617.2008	659.5427	709.9749	733.1172	826.3018	845.3307	1017.5263	1091.0313	1146.6257	1166.1722	1194.8499	1202.1577	1232.3742	1297.9111	1392.5574	1440.5567	1459.8231	1473.3799	1486.4507	1521.2924	1587.1473	1638.9636	1666.0014	3020.0315	3084.7979	3126.1172	3249.4283	3273.1835	3495.9769	3562.4348	3712.5919
CN1C=C(N)C(O)=C1	Cn1cc(N)c(O)c1	
InChI=1S/C5H8N2O/c1-7-2-4(6)5(8)3-7/h2-3,8H,6H2,1H3	InChI=1S/C5H8N2O/c1-7-2-4(6)5(8)3-7/h2-3,8H,6H2,1H3
