12
gdb 3682	3.83551	3.31527	1.798	2.0641	51.68	-0.2538	0.0009	0.2547	656.0448	0.09054	-360.514766	-360.508513	-360.507569	-360.544911	22.563	
C	-0.0477371289	 1.5389313796	 0.0011429382	-0.504692
C	-0.0138336671	 0.0456008026	-0.0110244853	 0.063779
C	-0.1173995675	-0.833315201	-1.0400806711	 0.013146
O	-0.0362346302	-2.1056080558	-0.6171386603	-0.175898
N	 0.1315056671	-2.1032028878	 0.7700633811	-0.254095
C	 0.1416333853	-0.8363195776	 1.1021841814	 0.398882
O	 0.2857470993	-0.4291279908	 2.3740128992	-0.415869
H	 0.8790537173	 1.9550701246	 0.4101605662	 0.141797
H	-0.1795442705	 1.9359418268	-1.0084471327	 0.129237
H	-0.8684137706	 1.9136694675	 0.622000748	 0.141801
H	-0.2491354863	-0.7009501966	-2.10359477	 0.149084
H	 0.3711343721	-1.2169281815	 2.9275043552	 0.312829
106.8788	231.8715	246.0999	335.0878	460.924	466.5093	592.0239	636.7014	732.0699	750.269	844.2211	913.552	957.1527	1019.0005	1069.5488	1155.6624	1214.7176	1265.194	1312.9845	1424.3756	1478.6596	1480.5867	1511.922	1563.9585	1685.0984	3037.6085	3090.5394	3120.2566	3256.8237	3782.1178
CC1=CON=C1O	Cc1conc1O	
InChI=1S/C4H5NO2/c1-3-2-7-5-4(3)6/h2H,1H3,(H,5,6)	InChI=1S/C4H5NO2/c1-3-2-7-5-4(3)6/h2H,1H3,(H,5,6)
