14
gdb 4559	4.07928	1.79917	1.26059	5.0512	61.11	-0.1862	0.0468	0.2331	912.528	0.107685	-415.90858	-415.900839	-415.899895	-415.940588	27.798	
C	-0.0134961021	 1.4527706699	 0.0527627939	-0.343516
N	-0.0369042448	 0.0097246704	 0.055769204	-0.113086
C	-1.1797447846	-0.8213456129	 0.0471238838	-0.23492
C	-0.7202779961	-2.0830110469	 0.0494734266	 0.359369
N	-1.3072536509	-3.3329229299	 0.1451713003	-0.588982
O	 0.6507922377	-2.0826337084	 0.0448897792	-0.231524
C	 1.0922040087	-0.7583373538	 0.0411359279	 0.479921
O	 2.2533396032	-0.4417909717	 0.0238481564	-0.416623
H	 1.033066762	 1.760726565	 0.0456236639	 0.172222
H	-0.5128254261	 1.8549803729	-0.8360659854	 0.132137
H	-0.5019361907	 1.8583405956	 0.9458748892	 0.133731
H	-2.1799649121	-0.4274659451	 0.0486538344	 0.13217
H	-2.2934653751	-3.321773867	-0.0771611686	 0.256494
H	-0.8233728192	-4.0289465481	-0.4099413457	 0.262605
112.2144	145.4606	184.6257	216.2592	277.5337	312.0762	343.6332	558.0922	612.6144	615.5033	632.2158	695.1969	730.3722	755.9328	863.8073	985.1527	1044.338	1084.4192	1119.3599	1159.1835	1211.0635	1334.8861	1387.2845	1431.5909	1466.8072	1491.5043	1518.1589	1631.234	1742.9542	1883.427	3025.115	3078.1446	3149.4385	3295.9049	3534.6234	3638.2346
CN1C=C(N)OC1=O	Cn1cc(N)oc1=O	
InChI=1S/C4H6N2O2/c1-6-2-3(5)8-4(6)7/h2H,5H2,1H3	InChI=1S/C4H6N2O2/c1-6-2-3(5)8-4(6)7/h2H,5H2,1H3
