15
gdb 3600	4.98738	2.18737	1.84251	1.8796	57.34	-0.2633	0.0778	0.3411	724.8937	0.124043	-345.608395	-345.601464	-345.60052	-345.6394	24.969	
C	 0.4474337263	 1.5210228946	-0.1213350295	-0.434719
C	 0.0795393645	 0.0826650944	 0.1325237679	 0.081843
O	 1.1398716828	-0.8879003894	 0.1459233073	-0.25642
C	 0.4132330754	-0.6789321069	 1.3515095512	 0.023914
C	 1.1644165012	-0.1607105718	 2.5409650311	 0.050867
C	 2.5882645311	-0.4755994423	 2.7329079429	-0.17327
O	 2.1634454222	 0.8360751422	 2.3557942938	-0.224394
H	 1.3477723693	 1.7961268768	 0.4258964072	 0.164233
H	 0.6156629838	 1.677490558	-1.192231431	 0.124039
H	-0.3740222265	 2.1784230198	 0.1845867608	 0.117774
H	-0.8009274661	-0.2655400792	-0.4130181734	 0.088438
H	-0.256067476	-1.5006476508	 1.6236952838	 0.089023
H	 0.5427355453	-0.0174936458	 3.4267156502	 0.097249
H	 2.9941782958	-0.5635286688	 3.7390278807	 0.116402
H	 3.1052330409	-1.030241311	 1.9532914072	 0.135021
83.6154	177.5121	208.3978	233.3146	314.9286	397.8903	534.0951	657.0191	744.6427	787.6302	854.7815	897.9807	950.0529	976.1994	1025.2613	1063.8371	1094.026	1112.6988	1157.7999	1168.3207	1176.8119	1182.8033	1283.4261	1299.8173	1387.8257	1415.9208	1431.1073	1468.8863	1501.4693	1509.1126	1518.7409	3039.4031	3060.1799	3080.4362	3093.0618	3095.9354	3100.3292	3171.3125	3191.955
CC1OC1C1CO1	C[C@H]1O[C@H]1[C@H]1CO1	
InChI=1S/C5H8O2/c1-3-5(7-3)4-2-6-4/h3-5H,2H2,1H3	InChI=1S/C5H8O2/c1-3-5(7-3)4-2-6-4/h3-5H,2H2,1H3/t3-,4-,5-/m1/s1
