15
gdb 862	6.18675	2.12951	1.61604	0.1269	64.89	-0.2015	0.0273	0.2289	776.8712	0.124938	-308.565933	-308.558908	-308.557964	-308.596797	25.372	
C	 0.1225074465	 1.4508981064	-0.0550563668	-0.491135
C	-0.0730196504	-0.0223843105	-0.0381805858	 0.348899
C	-1.1692990739	-0.8252763573	-0.0694529843	-0.255916
C	-0.6882096977	-2.1766067193	-0.0270860712	-0.255883
C	 0.6679650877	-2.1037497536	 0.0270822071	 0.348887
C	 1.7499599909	-3.1208989984	 0.088448014	-0.491143
O	 1.0556975237	-0.792295588	 0.0208807068	-0.21144
H	 0.7157322061	 1.770467749	-0.9197971181	 0.134855
H	-0.846941699	 1.9519397636	-0.1030863768	 0.133111
H	 0.6437369762	 1.8002218534	 0.8438930837	 0.134853
H	-2.1960731818	-0.4967559883	-0.116946266	 0.101047
H	-1.2758399956	-3.0816267154	-0.0358917676	 0.101045
H	 2.4287652611	-3.0418959966	-0.7687529019	 0.134851
H	 2.3567603912	-3.0120081356	 0.9949538886	 0.134854
H	 1.3155269449	-4.1231284093	 0.0876980781	 0.133114
125.1936	135.6597	190.2708	255.3745	286.4014	397.3106	614.6543	633.7051	642.2559	699.9295	792.9031	819.0868	941.1678	978.808	1013.3986	1032.4502	1047.7018	1061.5211	1068.455	1232.2206	1242.4071	1248.6795	1387.7415	1413.5205	1419.2319	1472.4356	1472.7659	1490.5818	1495.0992	1608.3383	1660.5806	3026.1115	3027.2362	3074.9168	3075.1197	3126.6213	3126.7087	3245.6366	3259.4502
CC1=CC=C(C)O1	Cc1ccc(C)o1	
InChI=1S/C6H8O/c1-5-3-4-6(2)7-5/h3-4H,1-2H3	InChI=1S/C6H8O/c1-5-3-4-6(2)7-5/h3-4H,1-2H3
