11
gdb 3956	7.9989	2.04825	1.65318	0.737	47.37	-0.2859	-0.034	0.2519	683.7226	0.079215	-376.564691	-376.5586	-376.557655	-376.595223	20.626	
O	 0.092973074	 1.3588879315	-0.3581925732	-0.408882
C	 0.0366898686	 0.0531115788	 0.1512441921	-0.152773
C	-1.3423984478	-0.5191304432	 0.040107775	 0.412428
N	-2.3090951409	-0.0392839427	-0.6843182244	-0.332212
C	-3.3083426557	-0.9547964015	-0.4546703411	 0.04634
N	-2.994710692	-1.9318216549	 0.3478137789	-0.108892
O	-1.6596178984	-1.639987452	 0.6873312081	-0.194059
H	-0.6150314994	 1.4464685784	-1.0091567216	 0.305478
H	 0.7310044113	-0.627429615	-0.3708618091	 0.130765
H	 0.3416478385	 0.0672087894	 1.204373871	 0.14583
H	-4.2916873681	-0.8876046588	-0.8966255957	 0.155978
62.2136	188.9692	248.7366	276.556	450.1253	647.767	686.1346	736.5242	894.4294	931.8215	980.4851	1029.9226	1032.7811	1109.8646	1192.5251	1226.7432	1252.9529	1302.6377	1357.233	1454.6792	1498.0611	1526.3516	1620.4421	2965.5094	3057.4538	3264.7033	3775.8726
OCC1=NC=NO1	OCc1ncno1	
InChI=1S/C3H4N2O2/c6-1-3-4-2-5-7-3/h2,6H,1H2	InChI=1S/C3H4N2O2/c6-1-3-4-2-5-7-3/h2,6H,1H2
