21
gdb 1097	4.18284	1.52738	1.51528	0.9723	71.53	-0.2516	0.0782	0.3298	977.2869	0.191792	-312.122696	-312.11323	-312.112286	-312.156004	34.198	
C	-0.0351152814	 1.4051605195	 0.0097630195	-0.225672
O	 0.01344892	 0.0005638579	 0.0018592099	-0.237697
C	-1.2658294404	-0.5974474244	 0.011007918	-0.047684
C	-1.1282848838	-2.1273758141	 0.0014157164	 0.239243
C	-0.3559178378	-2.5831436971	 1.2523582509	-0.398079
C	-2.5425986857	-2.7316552778	 0.0116323385	-0.411434
C	-0.3799625186	-2.5694900003	-1.2688916089	-0.398073
H	 0.9948493519	 1.7707259118	 0.0018213603	 0.124879
H	-0.5597255603	 1.8020767459	-0.8743844211	 0.101978
H	-0.5426287353	 1.7926392279	 0.9079646026	 0.101977
H	-1.8269175879	-0.2761244007	 0.9065885742	 0.076941
H	-1.8440911368	-0.2665367472	-0.8700385369	 0.076937
H	-0.8895994298	-2.303026066	 2.1679110284	 0.102211
H	-0.2328395385	-3.6714156219	 1.2576333241	 0.10401
H	 0.6345230782	-2.1230666681	 1.2864354771	 0.127807
H	-3.1177296319	-2.419952269	-0.8675482431	 0.108196
H	-2.4939256345	-3.8255346329	 0.0052694137	 0.112242
H	-3.1008320264	-2.4295100027	 0.9049270952	 0.108195
H	 0.609713883	-2.1090025642	-1.3168491144	 0.127809
H	-0.2571560716	-3.6576317913	-1.2883231697	 0.104006
H	-0.9309592923	-2.2794876652	-2.1710117948	 0.102209
86.8185	113.0541	177.5822	202.2743	238.788	251.3898	257.6294	326.574	327.7842	334.1119	410.8442	430.3546	513.7452	761.4338	922.6508	926.6199	941.5232	953.8112	962.6371	991.3101	1057.5227	1080.5719	1158.9081	1182.6724	1219.1477	1232.5235	1256.728	1287.7639	1311.7917	1391.6497	1392.427	1403.3728	1433.7749	1476.2969	1479.7387	1485.3893	1486.9552	1491.6392	1494.6898	1503.5408	1504.0364	1521.062	1525.0842	2935.1566	2965.2192	2966.986	3008.1659	3022.133	3026.391	3033.0516	3086.8792	3090.8948	3091.2539	3097.9703	3110.4949	3120.1387	3123.8821
COCC(C)(C)C	COCC(C)(C)C	
InChI=1S/C6H14O/c1-6(2,3)5-7-4/h5H2,1-4H3	InChI=1S/C6H14O/c1-6(2,3)5-7-4/h5H2,1-4H3
