14
gdb 1325	5.31189	1.89492	1.67309	4.0657	58.67	-0.2939	-0.0007	0.2932	767.8302	0.111446	-324.578381	-324.570922	-324.569978	-324.609576	26.587	
C	-0.0989021073	 1.5402044123	 0.0068842415	-0.459009
C	-0.0520831305	 0.0309751656	 0.0571658247	 0.398225
C	-1.213871931	-0.6981618725	-0.580119159	-0.453138
O	 1.2350342906	-0.5520842748	-0.1954680855	-0.264001
C	 0.7079422695	-0.6653321061	 1.1274839299	-0.156224
C	 1.398421798	 0.061478863	 2.1713403922	 0.304786
N	 1.9323674566	 0.6294335957	 3.0249565403	-0.330131
H	 0.7740771007	 1.9816450083	 0.4905676787	 0.153863
H	-0.1253562097	 1.8740854181	-1.0353646524	 0.134541
H	-1.0005523165	 1.9128134284	 0.5031667964	 0.132981
H	-1.2959869654	-0.4193289543	-1.6357047252	 0.137513
H	-1.0783761956	-1.7805791519	-0.5219604426	 0.134256
H	-2.1542897595	-0.4319476456	-0.0875183037	 0.133402
H	 0.4026182101	-1.6687796262	 1.4201548046	 0.132936
143.5817	151.8876	171.3056	216.6598	331.6804	354.3324	396.6457	412.0585	554.1117	592.1416	713.4476	804.993	930.4232	952.3302	963.6144	1026.4325	1059.1643	1111.1165	1150.1388	1266.3943	1330.4025	1412.1717	1423.3372	1427.8313	1472.0191	1483.4794	1495.3903	1509.7773	2358.4453	3040.8228	3046.2858	3106.7214	3111.7095	3125.5508	3130.2377	3142.6281
CC1(C)OC1C#N	CC1(C)O[C@H]1C#N	
InChI=1S/C5H7NO/c1-5(2)4(3-6)7-5/h4H,1-2H3	InChI=1S/C5H7NO/c1-5(2)4(3-6)7-5/h4H,1-2H3/t4-/m0/s1
