14
gdb 4439	3.52008	1.88481	1.24207	3.0933	62.47	-0.189	0.039	0.2279	921.4255	0.106744	-415.882519	-415.874793	-415.873848	-415.914214	28.535	
C	 0.0932689198	 1.4886297128	-0.0235895424	-0.498429
C	-0.0532054106	 0.0172754664	-0.0059552947	 0.246597
C	-1.1034659547	-0.8029471781	 0.0941291332	 0.24003
O	-2.4113649622	-0.5199776601	 0.2952559284	-0.426584
N	-0.6452417871	-2.1255620257	-0.0336955946	-0.397441
C	 0.7413418646	-2.0959468961	-0.092238891	 0.459045
N	 1.5103735815	-3.101224694	-0.1064013009	-0.597641
O	 1.1015214875	-0.7664857927	-0.1321900016	-0.251094
H	 0.7195991394	 1.8410597652	 0.8043737228	 0.140443
H	 0.5545052841	 1.8371105301	-0.9552594399	 0.137736
H	-0.8926825735	 1.949480402	 0.0706233753	 0.144123
H	-2.9292201637	-0.8508997306	-0.4501947802	 0.307298
H	-1.1112008843	-2.9178299696	 0.3780504223	 0.271507
H	 2.4823926691	-2.8045061295	-0.1400053367	 0.224411
152.9444	175.2433	223.5363	237.2219	249.8512	335.0364	344.9989	441.6403	542.3622	610.4688	637.1535	660.8484	720.627	761.124	830.2511	938.1019	992.1641	1057.8518	1069.4757	1131.6677	1239.8011	1257.177	1295.7359	1354.4069	1410.9161	1441.5863	1470.5034	1494.89	1779.245	1824.5697	3025.3664	3073.3275	3130.0498	3536.2898	3656.0921	3752.6273
CC1=C(O)NC(=N)O1	CC1=C(O)N[C@@H]([NH])O1	
InChI=1S/C4H6N2O2/c1-2-3(7)6-4(5)8-2/h7H,1H3,(H2,5,6)	InChI=1S/C4H7N2O2/c1-2-3(7)6-4(5)8-2/h4-7H,1H3/t4-/m1/s1
