13
gdb 3590	4.92884	3.38789	2.6361	3.2259	51.8	-0.2621	0.0581	0.3201	542.4604	0.102953	-344.412416	-344.407377	-344.406433	-344.440964	20.005	
C	-0.0091517791	 1.5158416247	 0.0956931688	-0.276826
C	 1.4323171601	 1.9875590106	-0.0898612471	 0.039727
O	 2.3647336119	 1.4837052526	 0.8667996939	-0.229753
C	 2.293436074	 0.8305873214	-0.4003715145	 0.010341
C	 1.4209090708	-0.4143594473	-0.4011147168	 0.010341
O	 0.8305972478	-0.7052365752	 0.8654912421	-0.229753
C	 0.039376154	 0.0000747494	-0.0910513062	 0.039727
H	-0.4119255108	 1.7975428535	 1.0734903214	 0.132327
H	-0.6468228895	 1.9632199278	-0.6753145015	 0.109066
H	 1.6334275435	 2.9962646137	-0.4445730957	 0.098735
H	 3.1835893497	 0.8800043773	-1.020803966	 0.098666
H	 1.6785334313	-1.2674583536	-1.0220840909	 0.098667
H	-0.8399763836	-0.5328562449	-0.4466866974	 0.098735
268.9876	315.1686	404.6187	572.2942	711.7592	720.5119	787.4435	848.846	860.5109	876.3295	902.7852	932.7612	981.8796	1012.2065	1023.0849	1051.4202	1092.7095	1128.6725	1203.2184	1244.3397	1266.0313	1290.969	1311.3795	1342.2673	1417.6693	1430.9655	1460.2096	3048.5245	3096.8503	3131.8455	3134.6106	3153.0798	3167.0922
C1C2OC2C2OC12	C1[C@H]2O[C@H]2[C@H]2O[C@@H]12	
InChI=1S/C5H6O2/c1-2-4(6-2)5-3(1)7-5/h2-5H,1H2	InChI=1S/C5H6O2/c1-2-4(6-2)5-3(1)7-5/h2-5H,1H2/t2-,3+,4-,5+
