16
gdb 4171	3.59558	1.64351	1.24841	1.0482	70.13	-0.2315	-0.0056	0.226	967.0609	0.130342	-379.839441	-379.831798	-379.830854	-379.871542	28.55	
O	-0.1086855515	 1.2817839539	 0.2283757682	-0.389229
N	-0.0271050448	-0.1172738159	 0.3324568792	-0.258765
C	-1.1163445551	-0.6703822612	-0.003709034	 0.35552
C	-2.5083343507	-0.2402803752	-0.4331801011	-0.327448
C	-2.9537978195	-1.7388060447	-0.3085658041	-0.310327
C	-1.49312796	-2.1147767341	 0.00456226	 0.291649
C	-0.6587118778	-3.253025737	-0.4597563491	-0.293535
N	-1.0501671188	-3.1355949916	 0.9517504133	-0.361133
H	 0.7656278623	 1.5601362194	 0.5213280364	 0.307398
H	-2.9952550291	 0.4675332064	 0.242105904	 0.131932
H	-2.5470646765	 0.1694286041	-1.4463160092	 0.129627
H	-3.6286792173	-1.9292551069	 0.5282465905	 0.121728
H	-3.3711604383	-2.1818707224	-1.2147710628	 0.110149
H	-1.1283441605	-4.0735897975	-0.9964167917	 0.122221
H	 0.3674960224	-3.0368102707	-0.7450054964	 0.126199
H	-0.2763902148	-2.7635262565	 1.499545937	 0.244014
80.3848	151.4641	163.4748	292.0271	301.2701	357.0643	440.4975	510.4234	519.2552	600.7953	754.0612	764.2821	816.3214	884.574	917.9705	952.4214	981.4042	994.095	1035.4383	1072.064	1102.0935	1114.3178	1147.4705	1202.1575	1215.5057	1248.1577	1275.1856	1292.1995	1384.7662	1426.7646	1459.6829	1486.506	1505.7129	1775.9482	3065.0344	3076.2588	3103.4167	3109.7524	3132.9542	3194.1759	3488.8873	3817.3113
ON=C1CCC11CN1	ON=C1CC[C@]21CN2	
InChI=1S/C5H8N2O/c8-7-4-1-2-5(4)3-6-5/h6,8H,1-3H2	InChI=1S/C5H8N2O/c8-7-4-1-2-5(4)3-6-5/h6,8H,1-3H2/t5-/m1/s1
