15
gdb 4787	6.81667	1.25431	1.07644	2.8398	65.22	-0.172	0.0477	0.2197	1058.0866	0.118707	-399.809907	-399.801819	-399.800875	-399.842576	29.171	
C	-0.1151753229	 1.429260105	 0.0908994751	-0.328134
N	-0.0363145781	 0.0112282346	-0.241205669	-0.386484
C	-1.1581113517	-0.7779002625	-0.0862351671	 0.474147
C	-1.3217913487	-2.1202193042	 0.122197241	-0.468284
C	-2.743117372	-2.333548231	 0.0912823615	 0.326667
O	-3.4037945458	-3.5120517111	 0.2528866736	-0.443641
C	-3.334142345	-1.130984232	-0.1207923742	-0.141468
O	-2.3464547391	-0.161636758	-0.2294549297	-0.185135
H	 0.8444755186	 1.8943373905	-0.1452393719	 0.124253
H	-0.8846612485	 1.9033315435	-0.5211414606	 0.153011
H	-0.3532303382	 1.6215886432	 1.1476991188	 0.11709
H	 0.7952871302	-0.4433138983	 0.1054166371	 0.243233
H	-0.5472380408	-2.855736051	 0.2744521879	 0.088744
H	-2.7554890032	-4.2127116189	 0.3636453987	 0.298639
H	-4.3497706447	-0.7922598497	-0.2034947213	 0.127363
56.4622	142.3963	183.4454	200.9906	244.0074	345.6037	378.6221	484.9587	543.8099	577.693	644.7671	669.7822	685.6392	714.1982	759.0165	950.3453	1009.273	1060.2113	1121.0243	1147.3588	1150.2734	1187.6918	1219.1781	1291.6824	1371.0207	1431.3213	1451.4052	1488.8868	1498.8733	1516.8231	1641.4435	1691.6043	2993.1038	3096.7031	3139.3185	3245.8622	3311.6243	3609.5783	3850.3368
CNC1=CC(O)=CO1	CNc1cc(O)co1	
InChI=1S/C5H7NO2/c1-6-5-2-4(7)3-8-5/h2-3,6-7H,1H3	InChI=1S/C5H7NO2/c1-6-5-2-4(7)3-8-5/h2-3,6-7H,1H3
