13
gdb 4041	6.4946	1.2975	1.08874	2.9305	68.46	-0.2498	-0.0787	0.1711	993.1983	0.095483	-398.594809	-398.587903	-398.586959	-398.626086	25.642	
O	-0.1199393415	 1.3367230977	 0.0085364287	-0.384369
N	 0.0190699477	-0.0529022168	 0.004049784	-0.210585
C	-1.1140427364	-0.648288878	 0.0113223937	 0.365165
C	-1.2361424375	-2.1528086599	 0.0085584954	-0.419959
C	-2.7570061817	-2.3839675389	 0.0196527734	 0.378822
O	-3.3160132843	-3.454506597	 0.0212468604	-0.317901
C	-3.3957903792	-1.0429704733	 0.0278904441	-0.187625
C	-2.4611970648	-0.0737329613	 0.0231128988	-0.120117
H	 0.7958573074	 1.6353339038	 0.0022113868	 0.314431
H	-0.7879144352	-2.6131247203	-0.8769716788	 0.154872
H	-0.7744492334	-2.6174286568	 0.8848785772	 0.154872
H	-4.4704020836	-0.9133081938	 0.0364701885	 0.129209
H	-2.6337489775	 0.9934498149	 0.0270858179	 0.143186
77.7644	226.5492	255.8816	280.8146	401.0369	411.0766	488.578	517.2575	655.7572	676.4476	714.678	826.2165	836.349	864.6695	958.3035	992.9187	1012.7029	1090.4659	1146.2827	1164.2813	1239.8394	1264.0974	1357.1767	1409.5892	1435.9036	1608.1211	1717.1452	1819.1417	3067.1326	3107.4782	3221.5284	3248.1504	3818.6449
ON=C1CC(=O)C=C1	ON=C1CC(=O)C=C1	
InChI=1S/C5H5NO2/c7-5-2-1-4(3-5)6-8/h1-2,8H,3H2	InChI=1S/C5H5NO2/c7-5-2-1-4(3-5)6-8/h1-2,8H,3H2
