10
gdb 1820	6.79694	2.45561	1.8039	2.3239	52.72	-0.2894	-0.0955	0.1939	625.2566	0.068242	-359.368793	-359.36354	-359.362596	-359.397857	19.278	
N	-0.0526391331	 1.2845947604	 0.0094600204	-0.509045
C	-0.0308094438	 0.0233216258	 0.0032788543	 0.406497
O	 1.1118923649	-0.7547214111	-0.0071986164	-0.225731
C	 0.7376868896	-2.0998353465	-0.0113029229	 0.424961
O	 1.5399838351	-2.9819383773	-0.0204369975	-0.309263
C	-0.7462900167	-2.1363355687	-0.0027039468	-0.222933
C	-1.1936958577	-0.8778178577	 0.0060465121	-0.119936
H	 0.89464264	 1.6676205322	 0.00562391	 0.245973
H	-1.2967498178	-3.0650139101	-0.0038815325	 0.153233
H	-2.2081307706	-0.5074359871	 0.0139005993	 0.156242
169.493	280.4491	375.5802	540.2832	630.4223	643.7971	723.5295	770.7179	859.5867	886.7699	907.7013	920.8817	984.6753	1057.8228	1076.0857	1138.5587	1322.3904	1361.1284	1641.7646	1764.5883	1896.9431	3249.7722	3270.852	3480.8237
N=C1OC(=O)C=C1	[NH]C1=C[CH]C(=O)O1	
InChI=1S/C4H3NO2/c5-3-1-2-4(6)7-3/h1-2,5H	InChI=1S/C4H3NO2/c5-3-1-2-4(6)7-3/h1-2,5H
