15
gdb 4353	3.9728	1.92288	1.31674	0.6644	68.76	-0.2596	-0.0411	0.2185	913.8263	0.119397	-358.915907	-358.908101	-358.907157	-358.950535	26.507	
C	-0.0678878339	 1.4855541801	 0.0134484181	-0.460879
C	-0.0007205412	-0.0129447841	 0.0111007954	 0.353157
N	 0.1015816383	-0.625323881	-1.1767785583	-0.277166
C	 0.1641535088	-1.9524844284	-1.1078417617	 0.067884
N	 0.1334958307	-2.689164984	-0.0003527661	-0.277152
C	 0.0297942549	-1.981512625	 1.1331712003	 0.353162
C	-0.0016264768	-2.7439734891	 2.4245581616	-0.46086
N	-0.0410921884	-0.6465162557	 1.1888753193	-0.298804
H	 0.8844700872	 1.8991825231	-0.3358060159	 0.148929
H	-0.8365824428	 1.8285183544	-0.6846466532	 0.14754
H	-0.2750465154	 1.8576250296	 1.0166411816	 0.14083
H	 0.2469422044	-2.489093188	-2.05145704	 0.126058
H	 0.9699195055	-3.220196185	 2.5964516822	 0.148982
H	-0.2263028537	-2.0773906748	 3.2570109129	 0.140875
H	-0.7421834475	-3.5465889619	 2.3696725138	 0.147446
18.1473	26.5229	171.3182	187.5136	290.5719	425.9303	431.0666	572.2222	589.6153	595.0593	792.5218	799.9992	942.3215	995.5009	1010.4184	1013.2995	1042.0441	1068.2584	1072.7621	1202.2795	1299.1727	1317.2498	1375.4977	1400.5949	1423.5919	1460.2551	1470.7554	1476.4079	1477.4099	1482.4373	1578.7945	1605.8006	3049.0131	3049.2837	3109.6215	3109.883	3153.7823	3160.9923	3161.2674
CC1=NC=NC(C)=N1	Cc1ncnc(C)n1	
InChI=1S/C5H7N3/c1-4-6-3-7-5(2)8-4/h3H,1-2H3	InChI=1S/C5H7N3/c1-4-6-3-7-5(2)8-4/h3H,1-2H3
