12
gdb 1503	6.80956	1.31033	1.11394	3.686	52.1	-0.2876	-0.0886	0.1989	961.0852	0.08802	-360.524672	-360.516949	-360.516005	-360.557263	25.389	
O	-0.1530944131	 1.4530175142	 0.011427935	-0.420516
C	 0.0376804339	 0.0494916708	 0.0021403615	-0.084233
C	-1.3517340894	-0.5747445407	 0.0114886152	-0.28914
C	-1.3227245196	-2.0795343551	 0.0030138076	 0.284889
O	-0.3257894389	-2.7576026614	-0.0098390047	-0.264775
C	-2.6560682665	-2.7254971398	 0.0125325287	 0.230917
N	-3.7007993025	-3.220783723	 0.0200617089	-0.291444
H	 0.7111197639	 1.8748379292	 0.0066571622	 0.294125
H	 0.5864643605	-0.2863706077	-0.8892613953	 0.111188
H	 0.6026516295	-0.2958964422	 0.8796814928	 0.111186
H	-1.918918853	-0.2405112981	 0.8907460344	 0.158901
H	-1.9348313048	-0.2311044863	-0.8536336164	 0.158902
76.0881	92.9884	121.1882	228.14	269.0165	276.9	377.3959	463.7259	576.7014	613.2057	803.468	841.1069	1012.7073	1057.9944	1075.5405	1115.7945	1206.8507	1256.1203	1297.9257	1353.5158	1440.551	1470.3479	1523.6751	1794.9187	2338.571	2996.3546	3025.6721	3031.1548	3064.9158	3833.9477
OCCC(=O)C#N	OCCC(=O)C#N	
InChI=1S/C4H5NO2/c5-3-4(7)1-2-6/h6H,1-2H2	InChI=1S/C4H5NO2/c5-3-4(7)1-2-6/h6H,1-2H2
