16
gdb 303	5.42634	2.9036	2.43856	1.7972	56.95	-0.2545	0.0923	0.3468	616.1558	0.140619	-271.630416	-271.623061	-271.622116	-271.660915	26.504	
C	-0.0256668068	 1.5299696301	-0.1374145538	-0.422616
C	-0.0019588956	 0.0390865443	 0.0855289398	 0.036898
O	 1.2500860271	-0.6391041536	-0.0825201266	-0.299454
C	 0.6358939149	-0.6592839179	 1.2197481039	 0.402855
C	 1.3873066932	 0.0802845316	 2.3056844935	-0.454336
C	 0.101599317	-2.0154879651	 1.6331106892	-0.449168
H	 0.8124800757	 2.0331393811	 0.3475569586	 0.125675
H	 0.0263477113	 1.7483617076	-1.2094552086	 0.129375
H	-0.9594669693	 1.9575965393	 0.2442552437	 0.119485
H	-0.839470082	-0.4845870554	-0.3837468733	 0.077828
H	 1.8034734804	 1.0222039355	 1.9464801847	 0.126679
H	 0.7308098512	 0.2895210584	 3.1575072501	 0.118078
H	 2.217514279	-0.5348191706	 2.6701469165	 0.124495
H	 0.9196775951	-2.6638318787	 1.9662124057	 0.122544
H	-0.607822018	-1.9206136161	 2.4626303547	 0.116784
H	-0.4025709332	-2.5061934604	 0.7970437022	 0.124877
147.6479	158.7158	189.2771	243.5125	268.6481	361.6732	404.797	478.3382	486.487	693.4092	761.9087	891.0166	942.0911	968.9787	988.915	1021.1997	1098.9397	1135.5421	1154.0692	1183.5339	1264.7473	1355.1703	1406.4955	1409.8865	1421.6724	1461.2257	1472.2437	1481.8527	1483.0268	1495.4271	1505.1101	1528.4294	3031.3798	3037.0041	3039.5918	3065.78	3091.7836	3096.3998	3097.2371	3122.2261	3134.1089	3145.0208
CC1OC1(C)C	C[C@H]1OC1(C)C	
InChI=1S/C5H10O/c1-4-5(2,3)6-4/h4H,1-3H3	InChI=1S/C5H10O/c1-4-5(2,3)6-4/h4H,1-3H3/t4-/m1/s1
