15
gdb 4017	2.63457	1.16889	0.81371	0.1976	79.57	-0.2313	-0.0521	0.1792	1326.208	0.108567	-453.828674	-453.818896	-453.817952	-453.863645	34.926	
C	-0.0268310656	 1.5236925115	-0.0108288059	-0.484777
C	-0.0350572002	 0.0210960926	-0.0173331143	 0.334041
N	-0.1132495445	-0.702841963	 1.0416818166	-0.19941
O	-0.1889369956	 0.0811114824	 2.1889368133	-0.38446
C	 0.0489881767	-0.7342008589	-1.2829190964	 0.092948
N	 0.1290496335	-0.038959418	-2.3714121755	-0.176195
O	 0.2034689879	-0.8255319058	-3.5020718632	-0.370714
C	 0.0393455334	-2.1605853851	-1.2633812037	 0.381982
C	 0.0340950214	-3.3626635669	-1.2881122743	-0.461197
H	 0.0470645711	 1.9186581721	-1.0215368182	 0.146412
H	-0.9383927944	 1.8968203952	 0.4662253346	 0.146461
H	 0.8125105317	 1.8866624468	 0.5904053692	 0.146465
H	-0.2414217763	-0.5815649466	 2.886559556	 0.312305
H	 0.2566047447	-0.17123955	-4.2084484278	 0.313619
H	 0.0284384862	-4.4247174963	-1.2954226805	 0.202521
60.2437	81.9035	134.7791	166.4747	196.2603	283.4462	306.2354	354.2779	386.3354	433.4579	439.7813	473.5508	488.4345	560.2414	648.9708	651.6614	722.5662	723.2847	782.4313	951.0323	1027.3563	1055.0803	1067.7949	1128.4096	1334.8739	1385.0292	1399.42	1424.9127	1483.8006	1485.393	1643.3968	1692.0185	2231.5468	3052.0166	3104.7972	3177.9213	3501.6422	3802.4312	3812.2818	60.2426	81.8986	134.7795	166.4743	196.2602	283.4452	306.2355	354.2777	386.3355	433.4579	439.781	473.5502	488.4347	560.2408	648.9687	651.6598	722.5659	723.2848	782.4313	951.0324	1027.3563	1055.0806	1067.7948	1128.4098	1334.874	1385.0291	1399.4205	1424.9128	1483.8014	1485.3937	1643.3967	1692.0183	2231.5468	3052.0166	3104.7971	3177.9212	3501.6419	3802.4308	3812.282
CC(=NO)C(=NO)C#C	CC(=NO)C(=NO)C#C	
InChI=1S/C5H6N2O2/c1-3-5(7-9)4(2)6-8/h1,8-9H,2H3	InChI=1S/C5H6N2O2/c1-3-5(7-9)4(2)6-8/h1,8-9H,2H3
