15
gdb 2906	6.64514	1.78669	1.50926	2.988	63.37	-0.2421	-0.0253	0.2167	798.2111	0.125598	-308.540101	-308.533481	-308.532536	-308.571329	23.742	
O	-0.0230419006	-0.0793693082	 0.0980236439	-0.249038
C	 0.0534470098	 1.1179990156	 0.0111161671	 0.154723
C	 1.3413588526	 1.9195285231	 0.0203073091	-0.090251
C	 1.4200490652	 2.9048244807	-1.1832241556	-0.241801
C	 1.9630607471	 4.2413799517	-0.6138678865	-0.249944
C	 1.7447081284	 4.0950680014	 0.8705724833	-0.060609
C	 1.4169637979	 2.8520465203	 1.2171533445	-0.083891
H	-0.8620512069	 1.7514785275	-0.0784695986	 0.070486
H	 2.1666504919	 1.1971756444	 0.0309073077	 0.096776
H	 2.027607381	 2.5046181101	-1.9972338687	 0.113793
H	 0.4120674231	 3.0642557426	-1.5840349448	 0.108708
H	 3.0306177874	 4.3787035787	-0.8341301499	 0.113526
H	 1.450012083	 5.1121401679	-1.0372159846	 0.110064
H	 1.8927936925	 4.9133169577	 1.5670769066	 0.101073
H	 1.2548107177	 2.4996755366	 2.2295750765	 0.106386
64.4215	87.1417	258.8061	323.7511	433.4911	455.233	645.5575	752.4791	784.1913	838.7128	907.6087	909.24	955.964	980.461	984.618	1036.0433	1083.1808	1099.768	1136.9054	1180.2098	1229.5783	1262.5288	1288.6899	1318.9705	1328.3734	1377.5996	1420.8815	1481.25	1498.3281	1681.5957	1833.6048	2842.2638	3015.3836	3034.288	3037.7094	3060.0755	3109.7934	3183.4006	3208.9616
O=CC1CCC=C1	O=C[C@H]1CCC=C1	
InChI=1S/C6H8O/c7-5-6-3-1-2-4-6/h1,3,5-6H,2,4H2	InChI=1S/C6H8O/c7-5-6-3-1-2-4-6/h1,3,5-6H,2,4H2/t6-/m1/s1
