13
gdb 4682	6.21145	1.40233	1.15225	2.1539	72.8	-0.2288	-0.0338	0.1951	985.6957	0.095007	-361.46951	-361.462309	-361.461365	-361.500957	26.141	
C	 0.1359502989	 1.4529463138	 0.0829438147	-0.501941
C	-0.0503250284	-0.014129516	-0.030161808	 0.327504
C	-1.1127182209	-0.8332649877	-0.2529815723	-0.193281
N	-0.6975134588	-2.1505174622	-0.2580719985	-0.306391
C	 0.5844788663	-2.0862467989	-0.0412571485	 0.210294
O	 1.0505777239	-0.8101371621	 0.1080671411	-0.197224
C	 1.5143432519	-3.1415008699	 0.0541457394	 0.263866
C	 2.3100694346	-4.0398165046	 0.1358642119	-0.369947
H	 0.8295389463	 1.8275655535	-0.6778142346	 0.148149
H	-0.8238141053	 1.9571812657	-0.0484800311	 0.144089
H	 0.5401414522	 1.7301695695	 1.0626905377	 0.148138
H	-2.145327861	-0.5633433124	-0.4093678053	 0.12398
H	 3.0077727003	-4.8375175387	 0.2071293536	 0.202765
129.8344	147.9679	148.8391	261.314	320.9729	453.2977	543.979	581.3051	594.4542	650.4008	692.6865	699.4849	746.8816	855.5755	965.8233	1000.9603	1035.4326	1066.3034	1147.3377	1229.0769	1254.9102	1352.8151	1417.8858	1471.8918	1488.5624	1551.7688	1628.2112	2243.1065	3035.8235	3089.4114	3132.9878	3262.3325	3501.6975
CC1=CN=C(O1)C#C	Cc1cnc(o1)C#C	
InChI=1S/C6H5NO/c1-3-6-7-4-5(2)8-6/h1,4H,2H3	InChI=1S/C6H5NO/c1-3-6-7-4-5(2)8-6/h1,4H,2H3
