12
gdb 3663	3.68833	3.50383	1.81962	5.0224	53.57	-0.2228	-0.0137	0.2091	652.8895	0.089469	-356.682218	-356.67537	-356.674426	-356.713365	24.094	
C	-0.0387191243	 1.5095842053	 0.0720637034	-0.513977
C	-0.0279672468	 0.0206699117	-0.0225261507	 0.183239
C	-0.0100235554	-0.8107314693	-1.123261306	 0.377135
N	-0.0434197856	-0.5368662145	-2.4623348633	-0.584539
O	-0.0148373156	-2.0721053431	-0.7390234483	-0.226113
N	-0.0401920183	-2.0248135941	 0.7535456291	-0.048239
N	-0.0461577516	-0.8141337551	 1.0600852863	-0.143572
H	 0.7862817832	 1.9648993474	-0.4898496792	 0.121779
H	-0.972718491	 1.9455343533	-0.302273449	 0.135239
H	 0.0719563769	 1.8052017342	 1.1173644703	 0.15602
H	 0.2872115813	 0.3773516665	-2.7301569487	 0.269293
H	 0.2776003574	-1.2798331623	-3.0648408439	 0.273734
44.2198	228.5714	234.1201	304.2294	338.8777	384.8947	510.0467	568.9608	651.7412	670.749	742.9001	766.0667	967.9962	1003.0486	1068.8375	1082.5047	1265.2774	1312.3272	1411.6163	1468.5394	1483.1952	1488.9778	1504.7069	1618.6368	1665.7078	3020.4211	3065.5588	3131.2921	3580.6296	3687.6577
CC1=C(N)ON=N1	Cc1c(N)onn1	
InChI=1S/C3H5N3O/c1-2-3(4)7-6-5-2/h4H2,1H3	InChI=1S/C3H5N3O/c1-2-3(4)7-6-5-2/h4H2,1H3
