13
gdb 421	5.19024	3.89243	2.45819	2.5239	50.92	-0.2615	0.0284	0.2899	537.9634	0.108616	-286.493052	-286.487128	-286.486184	-286.522434	21.067	
C	-0.1459787368	 1.5432042537	 0.0845227788	-0.403311
C	 0.014553586	 0.032384037	-0.0270659633	-0.113548
C	 0.8938823871	-0.5405151223	-1.1628204176	-0.092187
O	 1.7962333949	-1.1332185043	-0.176556776	-0.253468
C	 1.0582211483	-0.6135084714	 0.8680502633	 0.437958
N	 1.2419814608	-0.6691556002	 2.1064687864	-0.543616
H	 0.8184450566	 2.0508620872	-0.0169602741	 0.125945
H	-0.8181148911	 1.9249791638	-0.690402737	 0.120285
H	-0.5623810314	 1.8069480955	 1.0604754887	 0.144908
H	-0.9548458286	-0.4676301901	 0.0534413926	 0.110062
H	 0.4464545062	-1.3099870959	-1.7962889737	 0.120298
H	 1.4188501795	 0.1990755177	-1.7739862592	 0.118942
H	 2.0860226687	-1.1962096906	 2.3367016212	 0.227732
128.8768	207.4936	220.6201	347.7412	463.3776	648.1654	724.5666	805.641	864.9364	890.4394	925.3621	972.06	1010.9042	1076.0646	1123.3393	1151.7643	1179.335	1229.2318	1254.7023	1335.0208	1377.7897	1412.6275	1494.5002	1495.6201	1517.4011	1825.0276	3039.0399	3057.809	3071.8913	3109.0013	3117.6003	3121.9407	3477.0896
CC1COC1=N	C[C@H]1CO[C]1[NH]	
InChI=1S/C4H7NO/c1-3-2-6-4(3)5/h3,5H,2H2,1H3	InChI=1S/C4H7NO/c1-3-2-6-4(3)5/h3,5H,2H2,1H3/t3-/m0/s1
