15
gdb 4577	5.7987	1.55213	1.23485	1.5735	73.14	-0.216	-0.0337	0.1823	952.6011	0.120788	-358.906952	-358.899695	-358.898751	-358.938449	27.2	
C	-0.0307074315	 1.5056342245	 0.0032665036	-0.471596
C	-0.0131599885	 0.0018813921	 0.0182144281	 0.301585
N	-0.2610549044	-0.6405711033	-1.1376379643	-0.283115
C	-0.2512126128	-1.9618481917	-1.1239109327	-0.070511
C	 0.0138788676	-2.6974459859	 0.0498798361	 0.360013
N	-0.0304612987	-4.0767361689	 0.0704387144	-0.568077
N	 0.2715132388	-2.0702235716	 1.1982570985	-0.310535
C	 0.2500046418	-0.735428282	 1.1695393954	-0.06314
H	 0.1956032293	 1.9155340005	 0.9911329749	 0.119321
H	 0.7030265606	 1.896564842	-0.7093663255	 0.135981
H	-1.0112646478	 1.8802638044	-0.3088325725	 0.136806
H	-0.4574034688	-2.473931335	-2.0625293298	 0.098485
H	 0.1608711929	-4.5524686896	-0.7971825282	 0.25394
H	 0.4134669857	-4.4892348033	 0.8776253435	 0.256832
H	 0.4589540659	-0.2315818824	 2.1108484984	 0.104011
80.0364	126.5477	298.2595	339.9742	367.9998	418.2323	434.0265	500.8971	517.0832	582.1447	661.9097	771.8584	793.2544	889.6604	909.2313	956.652	999.4405	1041.7081	1062.4731	1085.3792	1249.5762	1281.4969	1324.768	1356.9281	1409.8095	1414.0898	1476.2278	1492.5279	1523.7401	1582.9881	1624.2228	1644.9075	3036.822	3094.6416	3119.08	3133.8418	3149.5715	3576.8035	3690.8037
CC1=NC=C(N)N=C1	Cc1ncc(N)nc1	
InChI=1S/C5H7N3/c1-4-2-8-5(6)3-7-4/h2-3H,1H3,(H2,6,8)	InChI=1S/C5H7N3/c1-4-2-8-5(6)3-7-4/h2-3H,1H3,(H2,6,8)
