12
gdb 1025	8.01267	2.00775	1.60547	4.3627	61.64	-0.2294	-0.0431	0.1863	709.7198	0.092096	-323.42867	-323.422913	-323.421969	-323.458213	21.157	
O	-0.1780210345	-0.0115685013	 0.0000729687	-0.281716
C	-0.0265821001	 1.1918095052	 0.0079508977	 0.073765
C	 1.2506998701	 1.8735688543	-0.000999204	 0.220829
C	 2.5507194024	 1.3827434749	-0.0196231343	-0.190632
C	 3.425138781	 2.4860096672	-0.0205381377	-0.135218
C	 2.644246662	 3.6317574534	-0.0025302893	-0.077477
N	 1.33994025	 3.2529130636	 0.0088423252	-0.29175
H	-0.9070053274	 1.8803015176	 0.0233606229	 0.045189
H	 2.8066042572	 0.33504838	-0.0309164553	 0.126751
H	 4.5037417454	 2.4620597583	-0.0328206994	 0.10849
H	 2.9232335968	 4.673693739	 0.0027406279	 0.132541
H	 0.5509079571	 3.877518538	 0.0226630077	 0.269228
160.2136	200.5961	265.3815	499.1054	517.77	627.1038	659.0597	758.1491	759.5185	833.2983	893.0632	896.9225	982.6867	1022.3701	1057.3894	1120.9995	1145.8013	1257.6952	1295.9376	1407.7873	1458.701	1470.3308	1482.3313	1592.3136	1782.8085	2824.4434	3249.4389	3264.9061	3273.879	3665.4359
O=CC1=CC=CN1	O=Cc1ccc[nH]1	
InChI=1S/C5H5NO/c7-4-5-2-1-3-6-5/h1-4,6H	InChI=1S/C5H5NO/c7-4-5-2-1-3-6-5/h1-4,6H
