15
gdb 2101	4.87456	2.44231	1.75845	1.8373	58.54	-0.2514	0.0148	0.2662	707.5345	0.125967	-345.64767	-345.641106	-345.640162	-345.677965	24.563	
O	-0.0676232606	 1.432216182	 0.0204570082	-0.432178
C	 0.0291853266	 0.0111440676	-0.020266449	 0.069366
C	-1.4070828613	-0.5191131654	-0.0077668783	-0.086078
O	-1.431793516	-1.9089174418	-0.2689769152	-0.249342
C	-0.9933079038	-2.2326627297	-1.5741339679	-0.111081
C	 0.2453841841	-1.4875244896	-1.9869626613	-0.074719
C	 0.7250287821	-0.4766627251	-1.2679595802	-0.088623
H	 0.8220156827	 1.7922818104	 0.0889672566	 0.284611
H	 0.5565791251	-0.3590543045	 0.8742297103	 0.078876
H	-1.8708086151	-0.3727037074	 0.97048291	 0.112111
H	-1.987173837	 0.0447631291	-0.7551480037	 0.100279
H	-0.810725838	-3.3139612428	-1.5757011855	 0.118005
H	-1.7977231287	-2.0458092656	-2.3101606137	 0.100857
H	 0.7253644873	-1.8093881116	-2.9076978004	 0.095518
H	 1.6294783428	 0.0480920443	-1.5695371398	 0.082398
119.3246	212.6588	282.3752	301.2188	363.0916	468.0269	498.9955	549.3062	706.8918	781.2755	895.4337	917.1119	980.443	988.9455	1027.9965	1061.4493	1082.2182	1093.6167	1135.7403	1203.5459	1229.4295	1261.5671	1304.66	1345.5768	1357.9804	1403.3249	1407.3549	1436.1957	1484.6668	1501.7454	1722.9948	2933.2301	2961.1904	2991.5453	3048.9834	3103.1893	3139.7377	3168.5705	3821.7219
OC1COCC=C1	O[C@H]1COCC=C1	
InChI=1S/C5H8O2/c6-5-2-1-3-7-4-5/h1-2,5-6H,3-4H2	InChI=1S/C5H8O2/c6-5-2-1-3-7-4-5/h1-2,5-6H,3-4H2/t5-/m1/s1
