15
gdb 1896	3.71564	3.07505	2.30073	1.7143	57.21	-0.2485	0.0843	0.3328	639.2956	0.124503	-345.59241	-345.586031	-345.585087	-345.622228	24.895	
C	-0.0103196966	 1.4495709446	 0.1139469647	-0.51359
C	-0.0518941235	-0.0331417428	-0.066940841	 0.355749
C	 0.6402444217	-0.9542026834	-1.097036691	-0.260077
C	 0.0251702949	-1.8455493662	-0.0039366187	-0.004315
O	 0.5272619519	-0.8932880073	 1.0242845571	-0.374835
C	-1.2791778583	-1.0050205331	-0.0616449775	 0.162557
O	-2.1066450716	-0.9914952211	 1.050921347	-0.446674
H	 1.0130270863	 1.7933018093	 0.2911084887	 0.135762
H	-0.395120096	 1.9480028635	-0.7813394842	 0.130238
H	-0.6327576928	 1.7441332094	 0.9646391291	 0.135928
H	 0.2201711592	-1.0039998081	-2.1054028995	 0.097442
H	 1.7293689365	-0.9115279744	-1.0882271975	 0.112894
H	 0.1688544442	-2.9076833844	 0.1937056843	 0.096665
H	-1.8938020623	-1.0622636534	-0.9630795886	 0.0866
H	-1.4991814635	-0.9576446827	 1.8055892772	 0.285657
180.39	204.5634	287.227	324.3023	423.2373	511.6946	593.3979	635.9965	688.7809	747.7272	755.811	858.469	894.8309	909.2433	960.5315	1015.1921	1024.4493	1109.209	1137.1685	1152.5172	1166.7196	1204.3713	1229.7915	1243.4672	1310.37	1335.1888	1410.3868	1446.9615	1476.7603	1486.3873	1498.3451	3039.221	3063.0423	3096.1592	3112.9169	3116.1303	3124.9573	3151.4219	3722.9835
CC12CC(O1)C2O	C[C@@]12C[C@@H](O1)[C@H]2O	
InChI=1S/C5H8O2/c1-5-2-3(7-5)4(5)6/h3-4,6H,2H2,1H3	InChI=1S/C5H8O2/c1-5-2-3(7-5)4(5)6/h3-4,6H,2H2,1H3/t3-,4-,5+/m1/s1
