12
gdb 191	8.84271	3.54533	2.57115	0.5222	51.86	-0.2124	0.0239	0.2363	501.9826	0.097415	-269.267574	-269.262222	-269.261277	-269.2962	19.38	
C	 0.0576320116	 1.4794255377	 0.0313054108	-0.488196
C	-0.0773455176	-0.0007654909	 0.007787447	 0.365365
C	-1.1210435502	-0.8452209389	-0.2154661926	-0.263076
C	-0.6040937178	-2.1783669651	-0.098114749	-0.168965
C	 0.7147947951	-2.0423264804	 0.1876191485	-0.019149
O	 1.0530631596	-0.7250748692	 0.2559100062	-0.174208
H	 0.7774743646	 1.8305686536	-0.7168748625	 0.137506
H	-0.9085383323	 1.9424110137	-0.1809804332	 0.134576
H	 0.4016949846	 1.8374616365	 1.0083881514	 0.137499
H	-2.1363092026	-0.554783559	-0.4369136994	 0.102961
H	-1.1450627285	-3.104630331	-0.2119008245	 0.107191
H	 1.5165154234	-2.739985187	 0.3643811874	 0.128495
125.512	243.9816	334.3179	615.2458	643.5173	659.9235	740.2806	800.193	844.6066	902.9768	940.8561	992.9806	1038.9544	1065.51	1116.7685	1183.1065	1242.5065	1254.6343	1410.1862	1418.9642	1473.0489	1490.6102	1546.339	1642.7706	3029.6646	3079.4384	3128.5805	3248.9984	3260.627	3285.162
CC1=CC=CO1	Cc1ccco1	
InChI=1S/C5H6O/c1-5-3-2-4-6-5/h2-4H,1H3	InChI=1S/C5H6O/c1-5-3-2-4-6-5/h2-4H,1H3
