12
gdb 1600	4.1432	2.24218	1.53787	4.9929	52.08	-0.2585	0.0077	0.2663	747.7608	0.089346	-360.503506	-360.496335	-360.495391	-360.534917	25.588	
N	-0.0256173747	 0.94153487	-0.024912193	-0.529478
H	 0.9480887834	 0.7052909134	 0.144540264	 0.256194
H	-0.076902295	 2.7527183592	-0.5588652037	 0.310145
H	-0.4904839138	 0.0855772298	-0.3075216261	 0.255703
C	-0.6278811826	 1.4788892972	 1.2128271003	-0.313997
C	-0.1390226961	 0.8630994291	 2.4408178729	 0.348303
C	 0.3036189226	 0.3187540741	 3.4157896818	-0.445427
C	-0.4702104567	 3.0314531881	 1.2342667539	 0.446319
O	-0.6379661466	 3.6946775689	 2.2163838249	-0.321623
O	-0.1859013419	 3.533181947	 0.0289100267	-0.366958
H	-1.7122763322	 1.3224499896	 1.1379275808	 0.152389
H	 0.6842661737	-0.1438679766	 4.2929684874	 0.20843
66.0624	145.9492	227.7506	302.09	319.0095	422.4946	492.9908	538.9658	588.712	642.3655	668.216	737.8438	837.5171	857.5361	893.6605	1035.1659	1095.0481	1170.3318	1211.4481	1278.9852	1377.4746	1424.5793	1659.8796	1886.9562	2241.2736	3030.4551	3470.5327	3502.6038	3506.1329	3586.4475
[NH3+]C(C#C)C([O-])=O	N[C@@H](C#C)C(=O)O	
InChI=1S/C4H5NO2/c1-2-3(5)4(6)7/h1,3H,5H2,(H,6,7)	InChI=1S/C4H5NO2/c1-2-3(5)4(6)7/h1,3H,5H2,(H,6,7)/t3-/m0/s1
