12
gdb 947	6.14402	2.75995	1.90595	3.6179	58.46	-0.2369	-0.0189	0.218	622.7457	0.093894	-319.62156	-319.616041	-319.615097	-319.650559	21.044	
N	-0.0348528765	 1.3663725791	-0.1209841427	-0.56446
C	 0.0236182186	 0.0033729054	-0.0489115991	 0.408398
N	-1.1487996785	-0.6480913224	-0.0260346053	-0.316062
C	-1.0862514596	-1.977989318	 0.0003429346	 0.076128
N	 0.0001855424	-2.7472517974	 0.0136448366	-0.271836
C	 1.1623224701	-2.0751780599	-0.0050380855	 0.027616
C	 1.2431731525	-0.6980976812	-0.0377487128	-0.198533
H	 0.7742364083	 1.9048077683	 0.1380155345	 0.258274
H	-0.9341422257	 1.7770533567	 0.0741980309	 0.262802
H	-2.0438865001	-2.4948640012	 0.0167370667	 0.113168
H	 2.0679714401	-2.6778429514	 0.0073396292	 0.111908
H	 2.1972022685	-0.1834177881	-0.0569666772	 0.092597
200.5826	366.598	386.6789	392.7473	481.3057	559.8342	573.0443	691.4106	804.3732	844.6968	885.2298	986.4957	998.441	1023.2021	1055.4266	1095.3105	1207.4507	1285.8291	1367.5057	1371.0416	1432.4927	1516.735	1600.5644	1620.6006	1651.5503	3150.9597	3154.2171	3191.0267	3597.5356	3722.0283
NC1=NC=NC=C1	Nc1ncncc1	
InChI=1S/C4H5N3/c5-4-1-2-6-3-7-4/h1-3H,(H2,5,6,7)	InChI=1S/C4H5N3/c5-4-1-2-6-3-7-4/h1-3H,(H2,5,6,7)
