18
gdb 563	7.95497	2.17512	1.87197	0.0792	63.82	-0.2855	0.0897	0.3752	724.2171	0.16689	-235.696227	-235.689406	-235.688462	-235.726646	25.155	
C	 0.0123694058	 1.5459849476	-0.0798851913	-0.377256
C	 0.0073929404	 0.026956437	 0.1211854174	-0.194908
C	-1.3838678682	-0.5861333724	 0.0368852598	 0.083958
C	-2.1250418415	-0.6155100049	-1.3331496836	-0.216498
C	-2.6551169301	-2.029453347	-0.9731529633	-0.208169
C	-1.5355853313	-2.1328367043	 0.0970483664	-0.234257
H	 1.0264253635	 1.9539786937	-0.0236110072	 0.109813
H	-0.4013317676	 1.817303224	-1.057284623	 0.117346
H	-0.5915913209	 2.0479806027	 0.6843753159	 0.112066
H	 0.65219074	-0.4456224051	-0.6326563941	 0.087904
H	 0.4507976055	-0.2165712899	 1.0962971297	 0.091629
H	-2.033632399	-0.1245687379	 0.7917800899	 0.063836
H	-2.8573845817	 0.1685615899	-1.5411717296	 0.091843
H	-1.41218505	-0.652755866	-2.1645799535	 0.094438
H	-3.6482654638	-1.9847899379	-0.516531474	 0.099351
H	-2.6738625122	-2.7824070267	-1.7646779735	 0.092991
H	-0.6445343403	-2.6312224971	-0.3000943958	 0.094765
H	-1.7841172585	-2.5861346257	 1.06023331	 0.091149
101.774	135.8759	199.6159	250.7596	402.4824	403.7053	613.2952	743.8044	782.8849	791.5362	891.5946	931.9982	934.9529	945.4954	985.6221	997.8181	1019.0015	1107.5858	1136.817	1193.6421	1203.7219	1242.3026	1255.3471	1262.1286	1277.0139	1285.6425	1309.2601	1345.2745	1393.2427	1411.1145	1477.947	1483.5382	1487.2719	1500.5145	1506.5466	1511.5595	3006.0988	3016.6291	3029.7933	3039.9658	3040.8358	3045.9999	3055.3177	3092.0099	3095.7719	3096.659	3101.2136	3113.4622
CCC1CCC1	CCC1CCC1	
InChI=1S/C6H12/c1-2-6-4-3-5-6/h6H,2-5H2,1H3	InChI=1S/C6H12/c1-2-6-4-3-5-6/h6H,2-5H2,1H3
