15
gdb 4979	3.35526	2.2367	1.34384	1.3825	72.08	-0.1888	0.015	0.2038	867.0465	0.121239	-362.731421	-362.724498	-362.723554	-362.761949	27.764	
N	-0.0349692403	 1.4257809555	-0.1334105832	-0.593962
C	-0.0298518341	 0.0317863718	-0.056300857	 0.245824
C	-1.2023549471	-0.7219161974	 0.020402571	-0.182641
C	-1.1654082934	-2.1151384731	 0.0377633465	-0.111176
C	 0.0523098954	-2.7822403256	-0.0207651442	-0.124675
C	 1.234492067	-2.0435407987	-0.0942188755	-0.232892
C	 1.1969258435	-0.6565485763	-0.1108206728	 0.335299
O	 2.3215762679	 0.1291100627	-0.1719433049	-0.464054
H	 0.8422492084	 1.8469176876	 0.1370719639	 0.256769
H	-0.8226478071	 1.8657572527	 0.3194640831	 0.24314
H	-2.1547000971	-0.2011160064	 0.0628630441	 0.079868
H	-2.0932431604	-2.6734755769	 0.0978162096	 0.087503
H	 0.0928039921	-3.8653880105	-0.0084739471	 0.087836
H	 2.1967368723	-2.5485661647	-0.1353964845	 0.077295
H	 3.0995365829	-0.4367003108	-0.1749779889	 0.295866
185.0716	281.962	313.0355	314.812	335.6081	443.5674	458.2547	541.343	567.7519	591.7144	638.2893	739.4059	754.2716	779.4459	848.9482	864.8148	888.2495	933.83	1055.4774	1082.7943	1152.1153	1178.1054	1186.7385	1278.2884	1318.0164	1356.0366	1383.3881	1498.9058	1550.8165	1632.017	1642.3346	1662.7862	3149.7682	3163.5358	3183.7595	3201.1275	3561.8798	3664.7979	3834.7123
NC1=CC=CC=C1O	Nc1ccccc1O	
InChI=1S/C6H7NO/c7-5-3-1-2-4-6(5)8/h1-4,8H,7H2	InChI=1S/C6H7NO/c7-5-3-1-2-4-6(5)8/h1-4,8H,7H2
