13
gdb 3411	4.99773	2.98097	2.11857	3.6194	59.36	-0.2383	-0.0507	0.1876	608.0564	0.103572	-307.33553	-307.330163	-307.329219	-307.364476	21.02	
O	 0.0362368371	-0.0121510937	-0.0710476982	-0.335894
C	-0.0012418452	 1.1944985138	-0.0085935298	 0.395813
C	-1.2151527167	 2.058180348	 0.0798969741	-0.203382
C	-0.8657430545	 3.3513310213	 0.0244981458	-0.057355
C	 0.6168848444	 3.5308813076	-0.0408829047	-0.082569
C	 1.3547974497	 3.0311571006	 1.1846785587	-0.273033
C	 1.1866460477	 2.1372222863	-0.0340648445	-0.150575
H	-2.2114873328	 1.6506573768	 0.188210229	 0.116513
H	-1.5480186741	 4.1927306008	 0.073245852	 0.118501
H	 1.0465327553	 4.3341921165	-0.6270256778	 0.104142
H	 2.3542542923	 3.4124514374	 1.3674952579	 0.125862
H	 0.7743819119	 2.8168227098	 2.0755966587	 0.129853
H	 2.0675423848	 1.8487770148	-0.5921660813	 0.112124
181.1469	309.4694	415.7563	454.0872	621.5685	727.0877	744.8797	770.2539	826.1953	836.811	869.3104	938.0789	947.8968	982.4542	1008.2171	1067.6232	1077.6796	1094.305	1112.6779	1176.6691	1188.2952	1309.0781	1339.0386	1365.3685	1479.6847	1631.0123	1814.4568	3129.3695	3184.7357	3196.8091	3206.651	3223.005	3233.1602
O=C1C=CC2CC12	O=C1C=C[C@H]2C[C@@H]12	
InChI=1S/C6H6O/c7-6-2-1-4-3-5(4)6/h1-2,4-5H,3H2	InChI=1S/C6H6O/c7-6-2-1-4-3-5(4)6/h1-2,4-5H,3H2/t4-,5+/m0/s1
