15
gdb 4139	3.34527	1.82238	1.45502	1.1243	65.15	-0.2463	0.0225	0.2688	875.438	0.11863	-399.69203	-399.684932	-399.683988	-399.723226	27.515	
O	-0.1701334214	 1.3783012445	 0.0728485149	-0.403721
N	 0.0053190936	-0.0297042387	 0.0722791251	-0.323341
C	-1.1053060138	-0.6232605911	 0.0051324327	 0.465673
C	-2.6148034026	-0.4164506629	-0.0194491016	-0.189875
C	-2.6280679692	-1.5922640561	-1.0532894851	-0.233653
C	-1.5873362645	-2.0611345944	 0.0172427841	-0.178135
C	-2.6284392044	-1.5462241664	 1.0816081172	 0.189382
O	-2.2389793462	-1.2802256447	 2.3876009259	-0.445034
H	 0.7412513153	 1.6885398511	 0.0990936426	 0.305636
H	-3.1757634113	 0.5136929116	-0.0434160792	 0.1022
H	-3.5541936183	-2.1715451066	-1.0980396709	 0.105301
H	-2.2345210927	-1.3693757218	-2.044412276	 0.120185
H	-0.9985658167	-2.975318499	 0.0348057329	 0.095697
H	-3.5561700178	-2.1209643138	 1.1284586116	 0.096547
H	-1.4062563101	-0.7906882016	 2.3692348059	 0.293138
100.6809	207.6242	273.7069	337.0334	350.1493	403.5513	432.897	508.7381	572.2308	718.3912	739.9367	751.2367	841.7351	871.9427	893.0767	940.0269	984.7468	1036.121	1040.9454	1070.9396	1113.8873	1134.1418	1154.4829	1180.4267	1217.2936	1243.5472	1250.9366	1306.2223	1406.3199	1442.7284	1514.5952	1815.1601	3066.5007	3097.6607	3150.1969	3152.8654	3164.5589	3765.4175	3819.8499
ON=C1C2CC1C2O	ON=C1[C@H]2C[C@@H]1[C@H]2O	
InChI=1S/C5H7NO2/c7-5-2-1-3(5)4(2)6-8/h2-3,5,7-8H,1H2	InChI=1S/C5H7NO2/c7-5-2-1-3(5)4(2)6-8/h2-3,5,7-8H,1H2/t2-,3+,5+
