14
gdb 4233	3.38448	2.38617	1.93047	2.0582	46.27	-0.3436	0.0861	0.4298	708.6624	0.108875	-456.105229	-456.097706	-456.096761	-456.13687	26.861	
C	-0.0192950212	 1.5562308703	 0.0318004052	-0.402519
C	-0.0378395317	 0.02355754	-0.0042758832	-0.102057
C	-1.4613899191	-0.5444668356	 0.0350675016	-0.402512
C	 0.7031076271	-0.4870362574	-1.2319708183	 0.288047
F	 1.973520181	-0.0490144882	-1.2622539451	-0.08539
F	 0.7497558132	-1.8300711875	-1.2600451098	-0.085394
F	 0.1182116345	-0.0865838702	-2.3744323396	-0.08753
H	 1.0024592705	 1.9427736663	 0.0142686599	 0.132829
H	-0.5568026058	 1.9712478422	-0.8262462315	 0.132473
H	-0.5063257825	 1.9147810237	 0.9425721585	 0.120749
H	 0.5287661786	-0.3640906336	 0.8509729207	 0.105262
H	-2.0428621489	-0.1943511717	-0.8232480381	 0.13247
H	-1.4549307039	-1.6369203019	 0.0204979245	 0.132832
H	-1.9699323518	-0.2163308064	 0.9455484349	 0.120741
76.3706	209.4767	221.9845	230.2809	262.4645	326.724	407.7712	455.2578	541.2643	574.6503	630.5343	783.1431	907.9865	936.5634	971.7923	1056.9269	1125.777	1177.165	1201.5766	1207.4976	1284.2401	1342.9037	1392.0093	1399.3063	1424.6856	1489.4461	1493.537	1501.916	1519.8122	3044.3117	3046.5778	3050.4973	3116.4523	3121.7694	3128.2675	3129.5017
CC(C)C(F)(F)F	CC(C)C(F)(F)F	
InChI=1S/C4H7F3/c1-3(2)4(5,6)7/h3H,1-2H3	InChI=1S/C4H7F3/c1-3(2)4(5,6)7/h3H,1-2H3
