15
gdb 4966	3.32631	2.23191	1.34692	3.8062	70.21	-0.2288	-0.0164	0.2124	872.2308	0.120382	-362.728149	-362.721085	-362.720141	-362.759169	26.763	
C	 0.0289820127	 1.514756564	 0.0490574317	-0.537132
C	 0.0246448674	 0.0086345127	 0.012510104	 0.188481
C	-0.0456830569	-0.7112993869	-1.179622994	-0.182846
C	-0.046330543	-2.1011640352	-1.1556537946	-0.008099
N	 0.0182769736	-2.8117336955	-0.0257828848	-0.269324
C	 0.0857680261	-2.136408493	 1.1186511322	-0.047469
C	 0.0921296913	-0.7416245338	 1.1928764348	 0.26493
O	 0.1649495261	-0.1795026354	 2.4318934773	-0.434738
H	 0.9427977338	 1.9095263457	 0.5126505207	 0.137771
H	-0.0290055415	 1.9302840206	-0.9591924689	 0.140922
H	-0.8238168158	 1.912123253	 0.615322048	 0.137769
H	-0.0999352715	-0.1830119599	-2.1266404576	 0.093533
H	-0.1009566972	-2.6675918261	-2.0814317351	 0.103336
H	 0.1385550205	-2.7087489038	 2.0416308369	 0.113319
H	 0.1617595544	 0.7794523638	 2.3531642992	 0.299547
143.2286	173.4185	267.4624	291.4489	308.0761	427.4932	455.1355	529.5364	580.5953	613.6469	757.7748	770.5037	850.118	858.8753	946.0173	971.2079	996.5439	1058.0353	1092.1364	1150.1972	1230.1952	1237.1503	1300.7625	1317.9235	1349.8145	1408.7886	1463.8652	1486.9806	1500.3657	1526.2402	1609.3629	1646.2281	3011.3133	3057.9441	3121.9781	3157.7903	3161.052	3180.0476	3832.4438
CC1=CC=NC=C1O	Cc1ccncc1O	
InChI=1S/C6H7NO/c1-5-2-3-7-4-6(5)8/h2-4,8H,1H3	InChI=1S/C6H7NO/c1-5-2-3-7-4-6(5)8/h2-4,8H,1H3
