17
gdb 1353	4.16709	2.34578	2.25403	1.2671	59.62	-0.2499	0.0829	0.3328	702.565	0.147852	-346.863396	-346.856044	-346.855099	-346.894725	27.023	
C	-0.0083340768	 1.5226806889	 0.0832814635	-0.413457
C	-0.0318166594	-0.0040005769	-0.0250673529	 0.379196
C	-1.4542832083	-0.5579092242	-0.0301982375	-0.424746
C	 0.8218117942	-0.5088646678	-1.212053356	-0.14212
O	 2.1103100542	-0.6845257293	-0.645322622	-0.238095
C	 1.8478776027	-1.1836657406	 0.6414754899	 0.02062
O	 0.6819961472	-0.541408568	 1.1113630517	-0.299308
H	 1.0207871113	 1.8875775829	 0.0226800211	 0.125983
H	-0.5929367667	 1.9844426494	-0.7195498978	 0.108599
H	-0.4288588008	 1.8380082365	 1.0422283296	 0.123234
H	-2.0031597356	-0.2122283726	-0.9129591375	 0.114752
H	-1.4430439028	-1.6515532302	-0.0353432282	 0.117898
H	-1.9977484845	-0.2255985681	 0.8588835025	 0.1263
H	 0.4301984616	-1.462215663	-1.6009106798	 0.089379
H	 0.8994023396	 0.2082387061	-2.031682541	 0.116342
H	 1.6908130676	-2.2782006111	 0.6111261833	 0.08046
H	 2.6967165566	-0.9478767419	 1.2918086411	 0.114962
59.8332	205.3784	232.4807	257.8783	323.7785	331.4671	390.2632	441.3932	608.7211	734.422	793.8171	874.8304	924.8491	953.7209	980.8082	984.4942	1033.4577	1054.152	1116.7581	1167.1468	1192.2315	1202.7706	1238.0533	1270.0738	1292.0525	1360.6674	1397.5716	1412.3968	1432.759	1475.3294	1484.5493	1495.335	1503.0184	1511.3422	1548.7054	2925.472	2979.3949	3033.6148	3039.3861	3069.0201	3104.7779	3108.542	3113.1637	3117.4432	3122.3646
CC1(C)COCO1	CC1(C)COCO1	
InChI=1S/C5H10O2/c1-5(2)3-6-4-7-5/h3-4H2,1-2H3	InChI=1S/C5H10O2/c1-5(2)3-6-4-7-5/h3-4H2,1-2H3
