20
gdb 228	4.2679	2.47516	2.46634	0.0414	66.63	-0.3031	0.0748	0.378	704.4105	0.187572	-236.917458	-236.909222	-236.908277	-236.948672	30.906	
C	 0.1247685424	 1.5669892396	 0.0090388275	-0.398951
C	-0.0267727597	 0.0415590449	 0.0026711786	-0.165651
C	-1.4715477239	-0.5195873415	 0.0134002916	 0.283692
C	-2.2475336769	-0.0593265313	-1.2344670663	-0.399349
C	-1.3818748124	-2.0574256223	 0.0041270043	-0.399684
C	-2.2235617518	-0.0730946651	 1.2807944384	-0.399352
H	 1.1841404231	 1.843010063	 0.0003847402	 0.111066
H	-0.3383611983	 2.0291585679	-0.8681930522	 0.116262
H	-0.3215611204	 2.0201121364	 0.8995943927	 0.116255
H	 0.487871148	-0.3604919486	-0.8803852952	 0.087289
H	 0.5044144191	-0.3694892394	 0.8716780721	 0.08729
H	-1.7244559725	-0.3461335779	-2.1538769728	 0.105536
H	-3.2429497394	-0.5160899046	-1.2624513841	 0.106495
H	-2.3850764919	 1.0261504657	-1.251689889	 0.110298
H	-0.840498088	-2.4281640492	 0.8818377418	 0.105832
H	-2.3790247839	-2.511434332	 0.0110957465	 0.104808
H	-0.857281364	-2.4184707083	-0.887703566	 0.105833
H	-2.3608118241	 1.0120920207	 1.312430724	 0.110293
H	-3.2182376917	-0.5303923551	 1.322830612	 0.1065
H	-1.6829980739	-0.3697318728	 2.1868744859	 0.105538
92.8381	209.9538	248.5565	255.7321	274.2678	286.9311	332.6458	352.2496	404.666	416.1077	481.2117	708.8578	785.435	873.5855	932.3978	935.2326	959.2994	999.5037	1012.1811	1028.5847	1096.7356	1106.5467	1238.3993	1247.1259	1274.2939	1334.7069	1372.4306	1398.5797	1399.3335	1412.4197	1432.6539	1478.8317	1479.8248	1486.6952	1488.5879	1502.8211	1509.156	1511.24	1514.6187	1520.077	3007.9966	3020.1508	3023.8169	3031.1206	3040.1238	3040.6176	3087.3263	3087.652	3090.4333	3094.6161	3098.1744	3099.2672	3105.9619	3111.8998
CCC(C)(C)C	CCC(C)(C)C	
InChI=1S/C6H14/c1-5-6(2,3)4/h5H2,1-4H3	InChI=1S/C6H14/c1-5-6(2,3)4/h5H2,1-4H3
