17
gdb 2013	5.36199	2.10073	2.00897	1.7381	64.35	-0.2308	0.0933	0.3241	734.8427	0.148106	-309.658574	-309.651808	-309.650863	-309.689207	25.842	
C	-0.029348206	 1.5259815134	-0.0395670121	-0.381009
C	 0.0329755383	-0.0047796392	-0.0660063105	-0.313227
C	 0.809831509	-0.5378904562	-1.2338824114	 0.438205
C	 2.2527088645	-0.2108378252	-1.7198203411	-0.25528
C	 1.5283589207	-1.0408825192	-2.8008370675	 0.055481
C	 1.0024501959	-2.0031866003	-1.7136297455	-0.264319
O	 0.3246504369	-0.2023239336	-2.6091475594	-0.347936
H	 0.9691519548	 1.9607970091	 0.0715454694	 0.117471
H	-0.4593249995	 1.9079614813	-0.9694150032	 0.14024
H	-0.6434036486	 1.8775963919	 0.7944153625	 0.11201
H	 0.4918819776	-0.3888307855	 0.853907164	 0.104398
H	-0.979495599	-0.4243810403	-0.1113148843	 0.111916
H	 2.4311193277	 0.8326302024	-1.981783665	 0.105289
H	 3.0905084799	-0.6697427039	-1.187717845	 0.090623
H	 1.8299842358	-1.2536991189	-3.8260452766	 0.092301
H	 1.7236655172	-2.6288256284	-1.1806488736	 0.090472
H	 0.0815396148	-2.5303245075	-1.9671611707	 0.103366
85.7086	179.9278	204.5749	322.3042	396.6778	518.7851	592.2947	627.8665	703.1216	778.602	804.974	893.6309	904.2272	936.6919	965.2709	985.3041	1007.5714	1040.8863	1061.9876	1100.0627	1127.7056	1152.9636	1169.3725	1213.0923	1240.1244	1244.4505	1288.5062	1320.5618	1389.8279	1411.6571	1464.5437	1469.1211	1497.0119	1506.3223	1513.7527	3027.0827	3042.3233	3054.1083	3062.9667	3063.0494	3109.8158	3122.4155	3123.3048	3140.6893	3145.9217
CCC12CC(C1)O2	CC[C@@]12C[C@@H](C1)O2	
InChI=1S/C6H10O/c1-2-6-3-5(4-6)7-6/h5H,2-4H2,1H3	InChI=1S/C6H10O/c1-2-6-3-5(4-6)7-6/h5H,2-4H2,1H3/t5-,6+
