11
gdb 4328	4.26469	1.91886	1.32341	3.8272	56.02	-0.2532	-0.0591	0.1941	818.0404	0.073577	-434.607643	-434.601583	-434.600639	-434.63795	22.661	
O	 0.0239329458	 1.3281707391	 0.0079364955	-0.394694
C	-0.0134469995	-0.0063108289	 0.0008685913	 0.452454
C	-1.2010945618	-0.6748614513	 0.0038211565	-0.365077
C	-1.2155565612	-2.1032587097	-0.0042322814	 0.441612
O	-2.1239602479	-2.877864005	-0.0019295494	-0.327851
O	 0.1213936045	-2.6830917725	-0.0138863209	-0.206177
C	 1.1897138996	-1.9094690953	-0.0155518822	 0.160114
N	 1.2160863359	-0.6232757024	-0.0091248897	-0.367621
H	 0.9575585614	 1.5827668768	 0.0041397846	 0.311743
H	-2.1485384458	-0.1553880723	 0.0121800085	 0.137562
H	 2.116494549	-2.4777319385	-0.0234367829	 0.157934
154.8694	188.0612	378.3861	435.8862	466.8668	540.2388	545.3367	581.4725	683.8638	727.2617	767.3825	849.9377	876.5263	967.4878	989.3458	1114.7532	1199.1123	1262.0292	1317.951	1394.2705	1460.6664	1612.5692	1701.6005	1890.9537	3181.0053	3240.7493	3768.1677
OC1=CC(=O)OC=N1	Oc1cc(=O)ocn1	
InChI=1S/C4H3NO3/c6-3-1-4(7)8-2-5-3/h1-2,6H	InChI=1S/C4H3NO3/c6-3-1-4(7)8-2-5-3/h1-2,6H
