16
gdb 1329	5.13228	1.84121	1.68199	3.7136	62.74	-0.2489	0.0044	0.2533	798.8288	0.135047	-325.781571	-325.773859	-325.772915	-325.813075	27.758	
C	 0.2893771708	 1.3293967874	 0.1647139972	-0.453866
C	-0.0148924985	-0.1497447733	 0.0231825964	 0.306439
C	-1.4210811483	-0.5610897977	 0.4076821968	-0.441258
C	 0.7181161497	-0.9305686367	-1.0379220028	-0.275871
N	 1.0334994204	-1.1121880286	 0.3614198812	-0.087822
C	 2.269276026	-0.8427033726	 0.9162648552	 0.136415
O	 3.3319752277	-1.0765490846	 0.3920020973	-0.292471
H	 1.3159119053	 1.5586662383	-0.1349436169	 0.13583
H	-0.3890451549	 1.9155848069	-0.4637186916	 0.12975
H	 0.1504752821	 1.6630388363	 1.1988412229	 0.127477
H	-2.1557440991	-0.0551362722	-0.2277708488	 0.12305
H	-1.5531656617	-1.6404443743	 0.3034654409	 0.131008
H	-1.6343839439	-0.290071814	 1.4474566618	 0.124383
H	 0.2252681735	-1.766623413	-1.527340366	 0.122835
H	 1.4594516583	-0.4138184747	-1.6425380206	 0.133436
H	 2.1783055225	-0.4475859572	 1.9466028771	 0.080664
100.3067	168.909	203.5785	234.3221	260.1312	329.6714	369.8936	407.5743	447.4177	611.9472	707.9886	859.0995	911.3293	950.1378	963.6672	1026.3928	1033.1875	1041.9967	1125.2419	1132.3508	1149.6738	1255.7111	1289.676	1402.706	1412.2009	1418.3454	1429.931	1476.2451	1488.4161	1495.0311	1506.484	1517.146	1794.6898	2946.8829	3032.5006	3037.3366	3096.1025	3100.3764	3106.9169	3115.6575	3126.7275	3194.8092
CC1(C)CN1C=O	CC1(C)CN1C=O	
InChI=1S/C5H9NO/c1-5(2)3-6(5)4-7/h4H,3H2,1-2H3	InChI=1S/C5H9NO/c1-5(2)3-6(5)4-7/h4H,3H2,1-2H3
