10
gdb 1379	9.34497	1.40531	1.22327	1.2731	46.63	-0.285	-0.1049	0.1802	858.8845	0.064513	-396.475511	-396.468528	-396.467584	-396.507758	22.248	
N	-0.020467842	 1.4389161041	-0.0785727088	-0.477791
C	-0.0128212578	 0.1787016783	-0.0500572615	 0.334523
O	-1.131025556	-0.6058216027	-0.0825053312	-0.216488
C	-2.3794311549	-0.0212966989	 0.0454207196	 0.17406
O	-3.3601193824	-0.6849905496	-0.044520954	-0.237881
C	 1.2326517088	-0.6843968285	 0.010973229	 0.106914
O	 2.3278079158	-0.1904037151	 0.0365063416	-0.224537
H	 0.9476037801	 1.7681582377	-0.0408490532	 0.261695
H	-2.3199208321	 1.0566572675	 0.2361834742	 0.153525
H	 1.0542383105	-1.7760984427	 0.0292920142	 0.12598
39.023	103.0647	174.5824	190.6064	320.1697	429.9978	549.1069	553.6045	771.4911	912.6971	941.454	1041.9938	1046.2794	1054.9752	1091.0501	1323.6868	1388.3119	1422.846	1727.8831	1831.5601	1881.0503	2968.5761	3090.8397	3463.1811	39.0212	103.0642	174.5822	190.6062	320.1697	429.9977	549.1073	553.6047	771.4909	912.6972	941.4539	1041.9936	1046.2793	1054.9752	1091.0498	1323.6866	1388.312	1422.8458	1727.8833	1831.5594	1881.0504	2968.576	3090.8397	3463.1813
N=C(OC=O)C=O	[NH][C](OC=O)C=O	
InChI=1S/C3H3NO3/c4-3(1-5)7-2-6/h1-2,4H	InChI=1S/C3H3NO3/c4-3(1-5)7-2-6/h1-2,4H
