11
gdb 3213	3.61943	3.43351	2.08548	2.4229	46.88	-0.2435	-0.0401	0.2034	597.4201	0.076681	-380.343633	-380.337397	-380.336452	-380.373905	21.899	
O	-0.0726046486	 1.4595862275	 0.1669767446	-0.422447
C	-0.015026573	 0.0749187833	 0.0042415989	 0.001499
C	-1.355027607	-0.662313555	 0.0101712963	 0.018322
O	-2.0581760463	-0.2704337334	-1.1595235759	-0.222395
C	-1.0878267769	-1.3344786056	-1.2902819527	-0.115057
C	 0.2276304156	-0.5727515447	-1.4094395951	 0.382269
O	 1.1288718907	-0.5265691598	-2.1905476285	-0.297496
H	 0.7311960222	 1.8369427716	-0.2073333117	 0.301703
H	 0.6937835188	-0.408051796	 0.7012645375	 0.096017
H	-1.9263975074	-1.0361833962	 0.8504083852	 0.125707
H	-1.4253980281	-2.2859409016	-1.6817564086	 0.131877
114.9128	162.4338	242.2263	253.8375	481.4068	571.7012	678.0454	701.1083	811.0164	851.2262	889.0532	919.463	965.2116	1027.9779	1055.9275	1156.847	1174.52	1211.9128	1249.3845	1298.2525	1349.7145	1414.6545	1906.1629	2949.4894	3199.9241	3212.8063	3809.8312
OC1C2OC2C1=O	O[C@H]1[C@H]2O[C@H]2C1=O	
InChI=1S/C4H4O3/c5-1-2(6)4-3(1)7-4/h1,3-5H	InChI=1S/C4H4O3/c5-1-2(6)4-3(1)7-4/h1,3-5H/t1-,3-,4+/m1/s1
