17
gdb 4142	4.6301	1.51494	1.32155	0.8502	70.7	-0.2398	0.0106	0.2505	948.1058	0.143335	-363.826812	-363.819738	-363.818794	-363.858035	27.855	
O	-0.1106915717	 1.3554719331	 0.1242698838	-0.395395
N	 0.0409770243	-0.0422809348	 0.041396422	-0.219898
C	-1.083077063	-0.6261225268	-0.0746387504	 0.378842
C	-2.4582576816	 0.0007507037	-0.1941578748	-0.306358
C	-3.2983214784	-1.0828331435	-0.8545826293	-0.035568
C	-2.7667254424	-1.6560874658	-2.145163551	-0.285932
C	-2.513907105	-2.3827474277	-0.8480703473	-0.029847
C	-1.1753872906	-2.1379829114	-0.1660923903	-0.296427
H	 0.803963319	 1.654291423	 0.1606395076	 0.304816
H	-2.8451576831	 0.2454475282	 0.8040929289	 0.120937
H	-2.4117148969	 0.9401148627	-0.7526567844	 0.130306
H	-4.370142554	-1.0769897007	-0.6944776087	 0.08369
H	-3.4827319951	-2.093730757	-2.8318643982	 0.111253
H	-1.9338923656	-1.1546924577	-2.6312527389	 0.117109
H	-3.0098050669	-3.3318471353	-0.681745547	 0.08407
H	-0.3155037885	-2.5647680789	-0.6903764984	 0.121629
H	-1.1860205005	-2.5701399211	 0.8436809666	 0.116772
81.3859	237.4344	264.6873	321.2159	373.1872	383.3809	480.7805	528.0656	630.9762	686.0688	785.994	819.0264	827.1769	869.7628	886.1848	925.8155	973.7902	1013.7678	1041.2688	1043.0992	1081.589	1104.0905	1107.0225	1175.4546	1195.5657	1215.9776	1220.7216	1290.931	1299.0928	1345.3607	1390.7457	1404.2641	1469.4952	1476.1835	1491.5063	1755.4117	3019.359	3026.3456	3084.8178	3086.6477	3120.8151	3172.0335	3179.8107	3210.4272	3819.9058
ON=C1CC2CC2C1	ON=C1C[C@H]2C[C@H]2C1	
InChI=1S/C6H9NO/c8-7-6-2-4-1-5(4)3-6/h4-5,8H,1-3H2	InChI=1S/C6H9NO/c8-7-6-2-4-1-5(4)3-6/h4-5,8H,1-3H2/t4-,5+
