17
gdb 1466	6.36162	1.14931	1.01969	1.8851	69.52	-0.2481	0.0411	0.2892	1175.7881	0.145641	-309.697879	-309.688604	-309.68766	-309.733049	31.297	
C	-0.1097434566	 1.556979902	 0.0038816141	-0.385732
C	-0.0195812719	 0.030372595	 0.0047337902	-0.169139
C	 0.7833850365	-0.5126383268	 1.2039910045	-0.045462
O	 0.2305773748	-0.0807600613	 2.4492923829	-0.417864
C	 0.9107366663	-1.9713860069	 1.1473711356	 0.038747
C	 0.9645157696	-3.1743071378	 1.1060803859	 0.086248
C	 1.0527981526	-4.6267400887	 1.0616013729	-0.499371
H	 0.882691842	 2.010832318	-0.0961022689	 0.11344
H	-0.7251042991	 1.9138472732	-0.8272350371	 0.108495
H	-0.5469088512	 1.9161070949	 0.9388385968	 0.131315
H	-1.0229527028	-0.4137465943	 0.0351340951	 0.09373
H	 0.4509932572	-0.331565278	-0.916790368	 0.104633
H	 1.7842362005	-0.0613819981	 1.1816056692	 0.109996
H	-0.5531712352	-0.6174817149	 2.6115934981	 0.280902
H	 0.9500376837	-5.0601260942	 2.0625577426	 0.150857
H	 0.2684378324	-5.0581018224	 0.4300171261	 0.14781
H	 2.0188852012	-4.9513180296	 0.6596006099	 0.151398
17.3166	88.8558	95.4262	158.4374	222.7746	258.2243	274.8628	319.5923	352.7324	420.3203	515.8384	557.0009	757.0099	803.5534	893.0335	975.7626	1051.1534	1054.4609	1058.7525	1092.9569	1113.4496	1171.7317	1250.7873	1292.896	1326.048	1373.9802	1404.8462	1413.4107	1421.6567	1477.0918	1478.7988	1479.9197	1494.8764	1509.2489	2365.4352	3017.9617	3027.2563	3029.42	3036.7914	3067.3243	3088.2081	3088.9836	3101.8836	3125.2635	3803.884
CCC(O)C#CC	CC[C@@H](O)C#CC	
InChI=1S/C6H10O/c1-3-5-6(7)4-2/h6-7H,4H2,1-2H3	InChI=1S/C6H10O/c1-3-5-6(7)4-2/h6-7H,4H2,1-2H3/t6-/m1/s1
