12
gdb 2884	6.94635	2.03095	1.70321	5.5376	55.11	-0.2474	0.0016	0.249	692.608	0.092822	-319.574905	-319.568926	-319.567982	-319.604986	21.259	
N	-0.2167905864	-1.1546598551	-0.1957397691	-0.321154
C	-0.0794177459	-0.0123190895	-0.0933895211	 0.287097
C	 0.0538084105	 1.4383511856	 0.0603676492	-0.099223
C	-0.5890005016	 1.9669099385	 1.3863069658	-0.19766
N	 0.4042479346	 2.9753207312	 1.7764471378	-0.298232
C	 1.5546847181	 2.6872439155	 1.0689079572	 0.076912
N	 1.4730035988	 1.8648881161	 0.0941250989	-0.2455
H	-0.42646799	 1.908611643	-0.8075660595	 0.138623
H	-1.5742616146	 2.4079243457	 1.2235787941	 0.13329
H	-0.6768147728	 1.1691012522	 2.1330704756	 0.132772
H	 0.4846528424	 3.2235180078	 2.7516606312	 0.253494
H	 2.4765367068	 3.1992759188	 1.3289928899	 0.139582
90.2284	180.7955	266.8238	480.8789	495.3293	546.799	566.2508	711.055	843.7538	879.3494	963.1054	1000.3475	1014.6361	1048.5666	1059.4899	1137.095	1203.3982	1275.1601	1292.0843	1342.5675	1354.9364	1448.3536	1522.153	1686.6009	2365.5948	3022.7856	3037.2415	3107.5395	3191.9881	3609.4012
N#CC1CNC=N1	N#C[C@H]1CN[CH][N]1	
InChI=1S/C4H5N3/c5-1-4-2-6-3-7-4/h3-4H,2H2,(H,6,7)	InChI=1S/C4H5N3/c5-1-4-2-6-3-7-4/h3-4H,2H2,(H,6,7)/t4-/m0/s1
