14
gdb 845	6.96415	2.07749	1.63256	1.0064	59.82	-0.2274	0.014	0.2414	759.2008	0.113597	-324.627681	-324.620808	-324.619864	-324.658563	24.251	
C	 0.0337964362	 1.4592690658	-0.0462903684	-0.487636
C	-0.0534012078	-0.0232807309	 0.0072270981	 0.382279
N	-1.0903426804	-0.7774423277	-0.17801083	-0.340408
C	-0.6238577277	-2.0834553998	-0.0153859055	 0.250438
C	-1.5250303484	-3.2634251056	-0.1511343095	-0.490924
C	 0.6991310328	-2.028389634	 0.26496688	-0.122322
O	 1.0830716892	-0.7123506495	 0.2832820415	-0.173184
H	 0.7426938569	 1.7852565821	-0.8144661007	 0.144789
H	-0.9520847885	 1.8634746244	-0.2765260453	 0.156051
H	 0.3742538428	 1.8690029446	 0.9103135398	 0.144773
H	-1.9769405259	-3.2971656471	-1.1481386744	 0.137952
H	-0.9794105539	-4.1966298971	 0.0109312341	 0.122159
H	-2.3453316569	-3.2136786205	 0.5727476645	 0.13796
H	 1.4661983418	-2.7567976847	 0.4639317059	 0.138073
96.0825	139.3366	195.5102	262.0786	322.5554	403.6691	611.2586	643.23	700.2988	739.5331	748.5906	941.7871	983.1803	1025.9444	1052.5172	1066.3229	1068.1674	1133.0279	1222.4655	1286.8797	1354.1181	1412.7861	1418.3634	1475.5778	1476.4414	1481.4212	1491.1999	1623.1927	1645.0454	3037.3204	3044.4765	3092.9645	3098.3838	3120.6234	3157.9073	3291.0209
CC1=NC(C)=CO1	Cc1nc(C)co1	
InChI=1S/C5H7NO/c1-4-3-7-5(2)6-4/h3H,1-2H3	InChI=1S/C5H7NO/c1-4-3-7-5(2)6-4/h3H,1-2H3
