19
gdb 1333	4.83479	1.56896	1.4317	1.3945	68.29	-0.2565	0.0789	0.3355	934.2472	0.169894	-310.906568	-310.897972	-310.897028	-310.939073	31.481	
C	-0.0249865352	 1.5437148598	-0.1067723811	-0.454687
C	 0.0109496134	 0.0308758783	 0.0219139515	 0.335612
C	-1.2268104611	-0.6484813713	-0.5371034627	-0.446042
C	 1.3325147338	-0.6847015376	-0.1394100237	-0.318292
C	 0.666003944	-0.634803329	 1.2166615111	-0.007038
C	 1.2898022756	 0.1202904339	 2.360262128	-0.107844
O	 2.2471914643	-0.7362504382	 2.9747080437	-0.419286
H	 0.8949504728	 2.0171923095	 0.2446105526	 0.11382
H	-0.1593161874	 1.8310740979	-1.1563872198	 0.114111
H	-0.8611950634	 1.9722735903	 0.458967732	 0.111972
H	-1.3567475128	-0.4138133282	-1.6005096062	 0.111749
H	-1.1644780642	-1.7367605932	-0.4408280388	 0.11285
H	-2.1317400846	-0.3179174709	-0.0129149646	 0.111554
H	 1.3544515743	-1.6301821615	-0.6712778261	 0.105474
H	 2.224039383	-0.0798970858	-0.2756326851	 0.105797
H	 0.1959737303	-1.5590626218	 1.5444419193	 0.083974
H	 1.7665939693	 1.0439967357	 2.0002578603	 0.080225
H	 0.5115363657	 0.41624391	 3.0830494365	 0.083097
H	 2.5972584921	-0.2826175681	 3.7473254632	 0.282953
74.8117	158.3641	193.0589	212.2353	238.2825	267.8316	316.8361	365.219	381.5129	435.6541	506.0897	697.1766	831.7629	878.3417	913.0225	918.601	970.6819	998.72	1024.3905	1056.3051	1065.8329	1092.3527	1135.3853	1156.0603	1171.1405	1255.55	1257.5042	1296.5472	1333.0428	1406.0108	1413.7926	1425.0407	1467.0122	1481.5883	1490.8134	1493.9915	1501.5976	1517.0257	1519.8883	2961.8183	2999.3804	3017.7225	3024.1373	3074.9799	3078.2304	3098.8562	3112.4709	3123.2236	3135.2396	3206.3688	3823.3543
CC1(C)CC1CO	CC1(C)C[C@H]1CO	
InChI=1S/C6H12O/c1-6(2)3-5(6)4-7/h5,7H,3-4H2,1-2H3	InChI=1S/C6H12O/c1-6(2)3-5(6)4-7/h5,7H,3-4H2,1-2H3/t5-/m0/s1
