12
gdb 2256	4.13809	3.10508	2.1007	3.3424	50.13	-0.2483	0.	0.2484	610.2028	0.090612	-360.499088	-360.493101	-360.492157	-360.528675	22.522	
N	-0.1183965817	 1.4855546886	-0.2014542838	-0.595492
C	-0.0481599566	 0.0860561139	-0.0283920676	 0.114832
C	-0.3745381915	-0.8741077125	-1.1864044426	-0.317376
C	-1.1293897058	-0.9734072937	 0.0843709258	 0.072151
O	-0.3376117868	-1.7327075771	 1.0390003627	-0.265398
C	 0.633934474	-0.7322403134	 1.0540702589	 0.409545
O	 1.5710605937	-0.6436885075	 1.7775673329	-0.326856
H	-0.1604127381	 1.9696223153	 0.6891939502	 0.248083
H	 0.6871750689	 1.8375083952	-0.7082590599	 0.247854
H	-0.8786306455	-0.3686298242	-2.0046071383	 0.139083
H	 0.3133565309	-1.6654410086	-1.4656981658	 0.137529
H	-2.1919279516	-0.898318676	 0.2613895075	 0.136044
165.3472	268.3448	280.0054	342.7903	466.9287	513.3233	653.9308	724.8098	754.8988	788.0505	872.1271	894.6078	917.3231	932.447	1021.5128	1051.4857	1071.5807	1089.1257	1229.6591	1253.8701	1292.918	1416.7616	1489.0926	1665.5887	1937.4582	3127.6992	3223.521	3239.7704	3506.3714	3582.6958
NC12CC1OC2=O	N[C@]12C[C@H]1OC2=O	
InChI=1S/C4H5NO2/c5-4-1-2(4)7-3(4)6/h2H,1,5H2	InChI=1S/C4H5NO2/c5-4-1-2(4)7-3(4)6/h2H,1,5H2/t2-,4-/m1/s1
