12
gdb 4089	3.68708	1.91264	1.25936	3.4969	63.58	-0.2195	-0.0705	0.149	869.5655	0.084545	-414.656994	-414.650203	-414.649259	-414.687983	25.155	
O	-0.0827300764	 1.3220651057	 0.0075788191	-0.364255
N	 0.0180894512	-0.0576408179	 0.0022114687	-0.194794
C	-1.1402063082	-0.6129762008	 0.0091678471	 0.270593
C	-2.4918723723	-0.0833356688	 0.0212038214	-0.258495
C	-3.3226913779	-1.1482198264	 0.0239934177	-0.003106
N	-2.6220237151	-2.3501648859	 0.0146449448	-0.348758
C	-1.2438616795	-2.1270334802	 0.0048987693	 0.382907
O	-0.3862205274	-2.9741939214	-0.0044332011	-0.343537
H	 0.8403215362	 1.6016016793	 0.0014909121	 0.318355
H	-2.7679478519	 0.9567175396	 0.0267615995	 0.129244
H	-4.4033929721	-1.1620040366	 0.0321729897	 0.14325
H	-3.0242305965	-3.2714918067	 0.0146610017	 0.268595
132.9047	205.7993	211.0671	319.9337	373.3836	434.7679	498.0967	596.4199	640.3116	654.3707	731.0766	804.609	811.8885	852.2346	908.3924	1008.8592	1080.5674	1107.3539	1127.7165	1267.198	1342.714	1404.5406	1427.0274	1615.7873	1696.3437	1844.0481	3238.853	3291.3035	3681.3515	3801.9601
ON=C1C=CNC1=O	ON=C1C=CNC1=O	
InChI=1S/C4H4N2O2/c7-4-3(6-8)1-2-5-4/h1-2,8H,(H,5,6,7)	InChI=1S/C4H4N2O2/c7-4-3(6-8)1-2-5-4/h1-2,8H,(H,5,6,7)
