11
gdb 680	8.93185	3.58847	2.97765	2.6904	47.76	-0.2622	0.0182	0.2804	453.9067	0.085607	-285.255563	-285.250809	-285.249865	-285.283461	17.951	
N	-0.0562300339	 1.2139263755	-0.0246780424	-0.551626
C	-0.066815192	-0.0360658031	 0.0410812605	 0.456824
O	 0.9902818533	-0.943404258	 0.1750276447	-0.273167
C	 0.0657102314	-2.0453462798	-0.0226550156	 0.096938
C	-0.9061589936	-2.0818432288	 1.0975077557	-0.288021
C	-1.111200526	-1.0984683883	-0.0626927594	-0.194015
H	 0.8935306785	 1.5806410936	 0.0555776451	 0.231808
H	 0.377740625	-2.8473941943	-0.6763743132	 0.127471
H	-1.6068358535	-2.9113098968	 1.0969974243	 0.129979
H	-0.6099389796	-1.7208870953	 2.0771723453	 0.137229
H	-2.0015687196	-1.0755292445	-0.672384385	 0.12658
200.2481	427.2889	454.9616	638.0496	728.4642	790.4582	821.4722	863.4803	903.9111	936.6723	970.9399	991.3434	1027.4217	1044.2504	1063.5519	1087.8847	1186.8514	1199.093	1300.449	1340.0954	1475.7271	1834.5809	3126.9052	3218.0152	3223.4004	3240.3107	3481.3444
N=C1OC2CC12	[NH][C]1O[C@H]2C[C@@H]12	
InChI=1S/C4H5NO/c5-4-2-1-3(2)6-4/h2-3,5H,1H2	InChI=1S/C4H5NO/c5-4-2-1-3(2)6-4/h2-3,5H,1H2/t2-,3+/m1/s1
