17
gdb 1127	4.5272	1.62205	1.39604	3.5646	61.19	-0.2379	-0.0081	0.2299	917.6721	0.145363	-346.87926	-346.870545	-346.869601	-346.912809	30.598	
C	 0.2286743545	 1.4212931803	 0.1781839972	-0.410314
C	 0.0111691603	-0.0895918426	 0.2200409863	 0.145767
O	 0.1496020737	-0.5972195284	 1.5463344016	-0.430437
C	-1.3421438701	-0.5004935689	-0.401633973	-0.294542
C	-1.4431646809	-2.0199915487	-0.5271359225	 0.394904
C	-2.1204792498	-2.7575368741	 0.6079151817	-0.481897
O	-0.9587808225	-2.5894513358	-1.4783480784	-0.30747
H	 1.1855324183	 1.676144397	 0.6421879968	 0.129441
H	 0.2300314382	 1.7931378881	-0.8508069192	 0.12559
H	-0.5682340437	 1.9460745292	 0.7209026751	 0.108181
H	 0.8040174364	-0.586791432	-0.3499875353	 0.114562
H	-0.4060094781	-0.0617572213	 2.1241084509	 0.278098
H	-2.1569824356	-0.09214294	 0.2091836477	 0.087348
H	-1.4135581065	-0.0776006588	-1.4082018486	 0.121811
H	-3.1542614854	-2.4128261463	 0.7270786474	 0.129623
H	-2.1064904934	-3.8324181092	 0.424094388	 0.137051
H	-1.5899231056	-2.5228913086	 1.5372179543	 0.152284
37.0745	96.8888	166.5268	177.7827	242.043	298.7864	316.8362	381.4862	424.2683	457.3396	528.9682	601.8479	794.3102	842.1167	886.683	938.1069	972.5857	1016.4925	1072.2386	1100.3905	1142.3565	1161.8377	1242.7448	1296.7658	1324.1111	1363.294	1374.7664	1405.148	1425.3791	1461.5681	1472.3655	1476.8332	1491.7635	1494.5993	1812.2172	3022.9812	3028.0223	3035.6157	3057.0665	3092.8538	3100.1925	3102.4433	3120.7788	3153.4699	3795.2102
CC(O)CC(C)=O	C[C@@H](O)CC(=O)C	
InChI=1S/C5H10O2/c1-4(6)3-5(2)7/h4,6H,3H2,1-2H3	InChI=1S/C5H10O2/c1-4(6)3-5(2)7/h4,6H,3H2,1-2H3/t4-/m1/s1
