13
gdb 999	4.05002	3.44685	1.88426	2.452	55.05	-0.2013	0.0473	0.2485	643.5085	0.103382	-340.675814	-340.669226	-340.668282	-340.707078	23.333	
C	-0.0247221957	 1.4738196371	-0.0089231611	-0.347026
N	 0.0165528039	 0.025800061	-0.0156163521	-0.048262
C	 0.0138629136	-0.8155602016	-1.126498087	-0.135377
C	 0.0636115175	-2.083302115	-0.628289235	-0.094694
N	 0.098304801	-2.0676083502	 0.7567875997	-0.375612
C	 0.0684889282	-0.7978674787	 1.0628655198	 0.442167
O	 0.0844232895	-0.2731703382	 2.3032343029	-0.429438
H	 0.846759777	 1.8909101928	-0.5235940684	 0.140745
H	-0.9324984044	 1.8389319956	-0.4995934055	 0.140761
H	-0.0208058555	 1.8182053366	 1.0252754233	 0.164764
H	-0.0231005125	-0.419663411	-2.1275374147	 0.120432
H	 0.0770083156	-3.0131451827	-1.1753111208	 0.107486
H	 0.1210060716	-1.0250220557	 2.9073571089	 0.314055
30.4649	172.5184	287.2509	308.1623	396.2234	471.0029	626.6999	666.1321	679.4721	733.8992	767.806	834.5853	932.2218	1053.9324	1108.2323	1130.234	1154.4113	1213.5323	1297.8437	1305.5034	1374.7119	1454.5618	1490.9071	1509.467	1553.1887	1589.0862	1602.7312	3039.2018	3096.2024	3156.9604	3252.001	3281.0449	3809.4562
CN1C=CN=C1O	Cn1ccnc1O	
InChI=1S/C4H6N2O/c1-6-3-2-5-4(6)7/h2-3H,1H3,(H,5,7)	InChI=1S/C4H6N2O/c1-6-3-2-5-4(6)7/h2-3H,1H3,(H,5,7)
