13
gdb 4391	3.70029	2.05157	1.33071	3.5539	65.2	-0.2475	-0.0785	0.169	861.3318	0.095786	-398.65257	-398.645822	-398.644878	-398.683605	24.702	
C	 0.0656700048	 1.485270604	 0.0354054754	-0.471791
C	-0.0604340187	 0.0006692884	-0.0070140471	 0.38274
C	-1.1946298042	-0.70794125	-0.2127567371	-0.141368
N	-1.2049168343	-2.0837814242	-0.2334212497	-0.200639
C	-0.0854194262	-2.6994608758	-0.0489820148	-0.108868
C	 1.1992906354	-2.0334097757	 0.1812004685	 0.381468
O	 2.2661386959	-2.551183334	 0.356886763	-0.324686
O	 1.1159439138	-0.6380532153	 0.1871494617	-0.239909
H	 0.7631332673	 1.8320314108	-0.7345478161	 0.156434
H	-0.9045505214	 1.9581539778	-0.1250622605	 0.144268
H	 0.464071149	 1.8079220255	 1.0032273841	 0.156431
H	-2.1406136077	-0.2059496561	-0.3693818297	 0.122455
H	-0.0601251537	-3.7859264655	-0.0597770375	 0.143464
132.2815	164.2271	193.503	295.6037	433.6514	474.7348	522.3357	577.3054	603.0797	713.6307	762.9558	859.9928	861.8021	936.0043	1018.0653	1034.9579	1062.7022	1088.1869	1166.8815	1256.6509	1364.9286	1397.7023	1416.04	1467.8881	1480.2163	1569.2021	1670.5999	1847.5909	3041.6597	3098.7796	3144.7991	3172.572	3214.7372
CC1=CN=CC(=O)O1	Cc1cncc(=O)o1	
InChI=1S/C5H5NO2/c1-4-2-6-3-5(7)8-4/h2-3H,1H3	InChI=1S/C5H5NO2/c1-4-2-6-3-5(7)8-4/h2-3H,1H3
