13
gdb 3790	7.8097	2.09956	1.67929	1.5466	55.52	-0.2031	0.022	0.2251	712.6786	0.10476	-336.838171	-336.831746	-336.830802	-336.868507	22.784	
C	-0.0472677546	 1.4141597957	-0.0704776136	-0.31619
N	-0.0474133152	-0.0157413897	 0.1760757519	-0.365484
C	-1.2212206192	-0.7166411384	 0.0751771614	 0.440692
N	-2.419330061	-0.1404406557	 0.0870436815	-0.311148
N	-3.2421956481	-1.2317631134	 0.0253667117	-0.186393
C	-2.5192376126	-2.360492977	-0.0326250362	 0.024039
N	-1.2299869751	-2.0849404506	-0.0048338743	-0.336844
H	 0.9591206693	 1.8026315987	 0.1012924468	 0.119781
H	-0.3641614634	 1.680255788	-1.0897921234	 0.116033
H	-0.7314401745	 1.9040581674	 0.6270658218	 0.148601
H	 0.7455760948	-0.5334564403	-0.1692359592	 0.248152
H	-4.2394830181	-1.1047807037	 0.0192076839	 0.277031
H	-2.9598599523	-3.3446245412	-0.0926469625	 0.141729
117.3168	143.0326	212.8455	343.1269	454.4498	458.8765	538.7951	659.6655	750.5401	778.7827	854.0384	983.5507	994.8255	1085.4623	1109.6132	1155.9788	1159.4155	1203.1449	1290.3441	1333.2829	1447.8427	1458.8769	1479.8815	1483.6635	1515.3473	1568.8729	1623.9252	2995.3928	3086.7647	3129.5693	3255.0266	3630.1357	3681.8857
CNC1=NNC=N1	CNc1n[nH]cn1	
InChI=1S/C3H6N4/c1-4-3-5-2-6-7-3/h2H,1H3,(H2,4,5,6,7)	InChI=1S/C3H6N4/c1-4-3-5-2-6-7-3/h2H,1H3,(H2,4,5,6,7)
