13
gdb 1510	8.64796	1.18306	1.05417	3.2106	51.45	-0.2517	-0.0952	0.1565	1020.1521	0.09831	-381.593528	-381.585475	-381.584531	-381.626781	26.26	
O	-0.1486715938	 1.4644663348	 0.0116676499	-0.422377
C	 0.0377927361	 0.0590552349	 0.0023268742	-0.073449
C	-1.3437520873	-0.5749269009	 0.0113888799	-0.306569
C	-1.3116063544	-2.0841228941	 0.0027944293	 0.297168
O	-0.3039431812	-2.74602338	-0.0103641091	-0.269192
C	-2.6979774938	-2.7789238624	 0.0121607778	 0.09238
O	-2.820213458	-3.971227625	 0.0073981937	-0.201354
H	 0.7176241169	 1.8818775327	 0.0065517538	 0.29127
H	 0.5884108149	-0.2767976876	-0.8881522024	 0.108346
H	 0.6044276463	-0.2864199874	 0.8789725559	 0.108333
H	-1.9126683633	-0.2368121386	 0.8898433364	 0.142481
H	-1.9284011848	-0.2273249151	-0.8529306108	 0.142506
H	-3.5746272674	-2.0919515312	 0.0239147414	 0.090459
54.7844	89.4949	118.1127	141.3826	273.4732	285.5017	355.7633	418.9275	463.1999	741.2101	759.8772	872.6989	926.15	1004.056	1053.5009	1089.7538	1105.2482	1206.0651	1256.1811	1300.3955	1349.7117	1409.0507	1441.5797	1472.0965	1522.4946	1809.8361	1846.7773	2875.449	2995.1004	3015.1186	3020.7022	3047.9408	3831.468
OCCC(=O)C=O	OCCC(=O)C=O	
InChI=1S/C4H6O3/c5-2-1-4(7)3-6/h3,5H,1-2H2	InChI=1S/C4H6O3/c5-2-1-4(7)3-6/h3,5H,1-2H2
