13
gdb 2670	22.56192	0.86012	0.83728	1.5828	72.59	-0.2447	-0.0235	0.2212	1304.394	0.098912	-307.244627	-307.236613	-307.235668	-307.277	27.17	
C	-0.0066742054	 1.4157635399	-0.0024184144	-0.219353
O	-0.0217160689	 0.0064986803	 0.0453284298	-0.228661
C	 0.6185704935	-0.5681319589	-1.0750816883	-0.228203
C	 0.5818386044	-2.0195525023	-0.9846426178	 0.316759
C	 0.5704523532	-3.2279617042	-0.9431299808	-0.168592
C	 0.5534580114	-4.5873106516	-0.88908406	 0.290826
C	 0.5393933275	-5.7937030516	-0.8428188218	-0.553627
H	 1.0202655932	 1.8140896925	-0.0098887919	 0.107787
H	-0.5315268675	 1.800843747	-0.8910024914	 0.107766
H	-0.5185915531	 1.7721539031	 0.8937123445	 0.135604
H	 0.1287513693	-0.245486865	-2.0112965611	 0.123259
H	 1.6684188704	-0.2301770999	-1.1392897233	 0.123239
H	 0.5255580121	-6.8544030092	-0.7996572436	 0.193196
72.7226	82.9388	155.9747	228.6056	231.2836	350.1927	355.3404	456.7067	533.8477	546.1569	588.4462	610.4792	771.2692	977.6587	1022.7319	1138.8929	1182.1691	1186.8728	1219.7118	1252.0024	1410.6487	1476.8003	1484.6458	1491.8227	1514.6827	2185.2211	2370.0542	2941.4032	2958.5332	2971.875	3016.4925	3125.6087	3505.6741
COCC#CC#C	COCC#CC#C	
InChI=1S/C6H6O/c1-3-4-5-6-7-2/h1H,6H2,2H3	InChI=1S/C6H6O/c1-3-4-5-6-7-2/h1H,6H2,2H3
