13
gdb 1856	6.02435	2.09108	1.65358	4.044	56.42	-0.2421	-0.0505	0.1915	713.2796	0.102002	-344.481802	-344.475458	-344.474514	-344.512213	23.265	
O	 0.0063742732	 1.44341211	 0.0998071564	-0.427197
C	 0.0109625604	 0.0251148991	-0.0151466367	 0.077799
C	-1.4330367646	-0.4903356316	-0.0904026673	-0.335739
C	-1.4756003468	-1.418732293	-1.3128402678	 0.375277
O	-2.3928210284	-2.1348633556	-1.6349092549	-0.323108
C	-0.1737571658	-1.262452668	-2.012892339	-0.172293
C	 0.6340699739	-0.463310174	-1.3108292658	-0.080722
H	 0.9155160111	 1.7424603782	 0.2063404445	 0.285112
H	 0.5425600953	-0.4205777705	 0.840460232	 0.085284
H	-1.7756204371	-1.0102711534	 0.8063920492	 0.129921
H	-2.1039005299	 0.3571842824	-0.2620123591	 0.15257
H	 0.0391975616	-1.7520088045	-2.9549553027	 0.120992
H	 1.6420109272	-0.1745003891	-1.5939399286	 0.112103
75.0884	228.8137	265.5836	352.549	438.1615	489.2752	554.2428	662.9246	734.1096	813.1301	830.3074	874.2832	967.4206	1005.0488	1034.858	1067.5084	1111.3584	1160.2565	1186.0733	1244.7104	1264.1284	1334.3662	1356.9486	1414.0478	1448.7677	1654.5517	1823.0403	2972.5931	3071.916	3124.6453	3177.8735	3223.2682	3811.6353
OC1CC(=O)C=C1	O[C@H]1CC(=O)C=C1	
InChI=1S/C5H6O2/c6-4-1-2-5(7)3-4/h1-2,4,6H,3H2	InChI=1S/C5H6O2/c6-4-1-2-5(7)3-4/h1-2,4,6H,3H2/t4-/m1/s1
