16
gdb 1799	3.81908	2.55121	1.79293	2.6335	61.35	-0.2509	-0.0217	0.2291	743.6651	0.135478	-325.779372	-325.771683	-325.770738	-325.810984	27.856	
C	 0.7802791754	 1.0893157943	 0.3235236752	-0.49037
C	-0.2635029161	 0.0632484792	-0.0645373347	 0.337644
O	-1.2281069259	-0.1604737233	 0.6393487991	-0.325076
C	-0.0744996989	-0.6958457006	-1.3572486066	 0.232719
C	 0.8116989126	-0.1172872461	-2.4387391001	-0.477503
C	-0.1858040941	-2.1854525836	-1.1890814004	-0.250056
N	-1.2629097822	-1.4319745747	-1.8191154994	-0.336814
H	 1.7779017324	 0.6373501271	 0.3466976721	 0.143089
H	 0.8165763767	 1.8971628518	-0.4155745753	 0.146881
H	 0.5365144335	 1.5012534483	 1.3030035198	 0.145101
H	 1.8447199706	 0.0042203672	-2.0979412418	 0.118273
H	 0.8129948173	-0.7831162008	-3.3046034896	 0.136553
H	 0.4458790906	 0.8592837793	-2.7739908624	 0.1259
H	 0.3926094135	-2.8235178849	-1.8525695783	 0.119639
H	-0.3377978763	-2.5672681576	-0.1834468997	 0.127982
H	-1.9926831488	-1.2783584856	-1.121683308	 0.24604
73.7226	161.6991	200.4991	253.5356	279.5686	337.4546	367.0625	417.046	566.0163	609.8019	658.2486	827.6618	845.2	943.7934	965.0091	1004.2588	1036.8433	1045.9877	1105.9902	1107.8979	1124.2766	1198.3999	1300.7142	1344.7386	1364.434	1384.4892	1420.5642	1460.0289	1473.172	1489.5981	1497.5255	1499.3956	1780.4935	3036.1901	3040.7019	3098.1921	3101.6843	3105.3031	3126.1327	3156.1607	3198.831	3459.4631
CC(=O)C1(C)CN1	CC(=O)[C@@]1(C)CN1	
InChI=1S/C5H9NO/c1-4(7)5(2)3-6-5/h6H,3H2,1-2H3	InChI=1S/C5H9NO/c1-4(7)5(2)3-6-5/h6H,3H2,1-2H3/t5-/m1/s1
