15
gdb 3553	5.13474	2.9277	2.60241	1.6911	59.21	-0.2293	0.0826	0.3119	592.7196	0.125762	-308.448572	-308.442931	-308.441986	-308.47763	22.517	
C	 0.0352151258	 1.5720262039	 0.0364665836	-0.417178
C	 0.0762297884	 0.0533308064	-0.0184818948	 0.030374
C	 0.7877736401	-0.6721344531	-1.1674845112	-0.130945
C	 2.2513968122	-0.7907400956	-0.7049729577	 0.095891
O	 2.3787536392	-0.1207610508	 0.5495089228	-0.289868
C	 1.0891554572	-0.7077520125	 0.8908737985	 0.052025
C	 1.2529962854	-1.7912546618	-0.239225948	-0.145271
H	 1.04755584	 1.9805805531	-0.0050038562	 0.134142
H	-0.538486	 1.9789638113	-0.8032945067	 0.110695
H	-0.4387138247	 1.9207701704	 0.9610965879	 0.109957
H	-0.9180377878	-0.3854719371	 0.1193910216	 0.074667
H	 0.4975036158	-0.7425463092	-2.2083950807	 0.086987
H	 3.1114051158	-0.8573372978	-1.3576741816	 0.107901
H	 0.9472765318	-0.8460103095	 1.9609028562	 0.0821
H	 1.1840143408	-2.8687030176	-0.2818544936	 0.098523
209.7847	230.8034	282.0003	566.8073	584.0448	716.3353	759.9261	769.5469	786.5256	822.6954	867.9435	898.4852	921.0124	979.5408	1016.1073	1025.5521	1033.3064	1053.6874	1075.0112	1117.4626	1138.6576	1159.8552	1175.6403	1225.9165	1252.3235	1313.256	1370.489	1380.3279	1404.9473	1491.1015	1504.1071	3031.8657	3052.4389	3091.5622	3128.4955	3141.9588	3193.8361	3206.8703	3222.6959
CC1C2C3OC1C23	C[C@H]1[C@H]2[C@H]3O[C@@H]1[C@@H]23	
InChI=1S/C6H8O/c1-2-3-4-5(2)7-6(3)4/h2-6H,1H3	InChI=1S/C6H8O/c1-2-3-4-5(2)7-6(3)4/h2-6H,1H3/t2-,3+,4+,5-,6+/m0/s1
