12
gdb 2886	6.13505	2.12769	1.82654	4.4719	55.64	-0.2685	-0.0142	0.2543	678.3839	0.090997	-323.382399	-323.376361	-323.375417	-323.41262	21.369	
N	 0.0527992759	-1.1154416119	 0.2628103044	-0.317722
C	 0.01509554	 0.0266753964	 0.092882774	 0.26682
C	-0.0176018112	 1.4890556912	-0.146051124	-0.049358
O	-0.7377188472	 2.1552556475	 0.8815282142	-0.255782
C	 0.1448844708	 2.9975794113	 1.6305930629	-0.117974
C	 1.4496496136	 2.9497028302	 0.8906387981	-0.083948
C	 1.3689971706	 2.0972809994	-0.1219374752	-0.084813
H	-0.5326874855	 1.6497825645	-1.1042715892	 0.13654
H	-0.2876330516	 4.0061089738	 1.6759337101	 0.123864
H	 0.2389637678	 2.6289389847	 2.6632309159	 0.125182
H	 2.3149627864	 3.5331131206	 1.1774298965	 0.124642
H	 2.1378444704	 1.8231570123	-0.8306576177	 0.132549
83.9677	170.0297	249.6568	391.1459	520.028	553.4023	711.9566	771.6062	823.1172	900.0965	933.3447	957.9336	960.058	1022.4578	1046.5276	1109.4321	1129.0163	1198.9435	1278.6336	1340.5387	1350.2864	1381.7293	1516.281	1692.3035	2355.7202	2994.0442	3002.8607	3030.5556	3220.1432	3247.4681
N#CC1OCC=C1	N#C[C@H]1OCC=C1	
InChI=1S/C5H5NO/c6-4-5-2-1-3-7-5/h1-2,5H,3H2	InChI=1S/C5H5NO/c6-4-5-2-1-3-7-5/h1-2,5H,3H2/t5-/m0/s1
