10
gdb 739	9.77353	3.71834	2.73933	2.0655	43.44	-0.2882	-0.0242	0.264	456.0168	0.075037	-297.52358	-297.518433	-297.517488	-297.55255	17.141	
C	-0.0231997867	 1.4798818708	 0.0161295319	-0.47701
C	 0.0103313974	-0.0083484589	-0.0186989419	 0.391722
N	-0.1366121323	-0.7330773124	-1.1242638221	-0.2557
N	-0.0317376093	-1.9641233702	-0.6392551195	-0.065024
N	 0.1660715866	-2.0308249688	 0.667783146	-0.098671
N	 0.1955790288	-0.7913502464	 1.0800125498	-0.24633
H	 0.917104672	 1.8773505065	 0.4089922827	 0.151428
H	-0.1837673028	 1.8746636062	-0.9879630572	 0.147585
H	-0.8263781434	 1.8319595287	 0.669925534	 0.151424
H	-0.0969975702	-2.7881956255	-1.2176121636	 0.300577
59.5241	286.0117	348.1375	572.7789	698.1753	730.3948	744.8118	994.1233	1046.0194	1068.7938	1072.7824	1127.474	1192.9923	1271.3511	1347.5978	1409.1934	1476.0587	1479.0555	1486.7401	1554.1869	3054.5629	3113.7267	3150.9757	3652.0314
CC1=NNN=N1	Cc1n[nH]nn1	
InChI=1S/C2H4N4/c1-2-3-5-6-4-2/h1H3,(H,3,4,5,6)	InChI=1S/C2H4N4/c1-2-3-5-6-4-2/h1H3,(H,3,4,5,6)
