17
gdb 2154	3.50778	2.90903	1.74748	1.6775	66.64	-0.2248	0.0252	0.25	758.3742	0.147907	-309.733829	-309.72643	-309.725486	-309.765125	27.039	
C	 0.1171349147	 1.5556963587	-0.1028468758	-0.392526
C	-0.0205378231	 0.0435476677	 0.0807910482	 0.061559
O	 0.4997257571	-0.6276771411	-1.069888761	-0.278831
C	 1.4570246777	-1.608911558	-0.6828298309	-0.113025
C	 1.5862419951	-1.4614644956	 0.8047129821	-0.206227
C	 0.7485388143	-0.5302024612	 1.2526917269	 0.317309
C	 0.5174700138	-0.079584596	 2.658990551	-0.49757
H	 1.1722018405	 1.8417190373	-0.1534588055	 0.117238
H	-0.3696439376	 1.8620959564	-1.0327783833	 0.126333
H	-0.3561120654	 2.095784348	 0.7239383245	 0.109592
H	-1.0947533972	-0.1975296225	 0.1793767129	 0.072954
H	 1.1093280242	-2.6146391571	-0.9731287753	 0.099193
H	 2.4035688373	-1.4321550321	-1.2173015986	 0.102267
H	 2.2650803224	-2.0572264625	 1.4031157633	 0.095053
H	 1.1332974758	-0.6423435649	 3.3650921876	 0.126647
H	 0.7474034089	 0.985559031	 2.7830949099	 0.131877
H	-0.5338147285	-0.207523348	 2.9471323339	 0.128157
85.8291	171.6531	215.2056	249.7949	253.0673	338.4698	393.2817	558.0289	605.2739	766.3194	789.1272	819.1465	876.769	946.0117	1008.121	1033.9359	1049.3193	1052.2152	1092.5836	1117.0431	1121.071	1196.9868	1211.6298	1289.3126	1351.6524	1369.7999	1382.2551	1398.4831	1416.5069	1479.346	1486.0387	1492.5462	1496.2034	1524.984	1734.0605	2929.9411	2961.0078	2984.9507	3020.8273	3036.7809	3068.0644	3109.6014	3114.7537	3119.8557	3205.9774
CC1OCC=C1C	C[C@H]1OCC=C1C	
InChI=1S/C6H10O/c1-5-3-4-7-6(5)2/h3,6H,4H2,1-2H3	InChI=1S/C6H10O/c1-5-3-4-7-6(5)2/h3,6H,4H2,1-2H3/t6-/m1/s1
