13
gdb 1710	4.36687	2.27267	1.91423	2.3075	55.53	-0.2539	0.0194	0.2733	690.8396	0.099614	-344.385369	-344.378213	-344.377269	-344.416638	25.613	
O	 0.0205101699	 1.4458181469	-0.0895243001	-0.453862
C	 0.0142721883	 0.0359394904	-0.0005334583	 0.175344
C	 0.1311518345	-0.5610744852	 1.4383547717	-0.10689
O	-1.178778371	-1.1468107145	 1.3465564582	-0.26883
C	-1.4326139064	-0.516927093	 0.0790732285	-0.095344
C	 0.8861677272	-0.5751593293	-0.9926899346	 0.296646
C	 1.6384040566	-1.0504288549	-1.8013337806	-0.494586
H	 0.9126853457	 1.7291918285	-0.3162702702	 0.288951
H	 0.9122018422	-1.3110028318	 1.5993293632	 0.111056
H	 0.1898387881	 0.2245658441	 2.201963879	 0.107189
H	-2.1669886969	 0.2943897505	 0.148985607	 0.116291
H	-1.728305477	-1.2325822391	-0.6937722679	 0.116437
H	 2.2918335287	-1.4793843026	-2.520842236	 0.207598
68.3125	176.0406	177.3752	252.021	360.1253	401.793	515.3921	546.604	633.6766	648.4893	671.7408	830.8421	913.2661	953.4522	992.3494	1023.2717	1044.1964	1130.2908	1155.2008	1158.7389	1245.9497	1298.7196	1344.9396	1393.0036	1494.4266	1522.5356	2232.7433	3017.4819	3031.6566	3084.289	3092.2135	3499.2198	3814.9628
OC1(COC1)C#C	OC1(COC1)C#C	
InChI=1S/C5H6O2/c1-2-5(6)3-7-4-5/h1,6H,3-4H2	InChI=1S/C5H6O2/c1-2-5(6)3-7-4-5/h1,6H,3-4H2
