10
gdb 805	3.81358	2.32951	1.44614	0.468	62.61	-0.2418	-0.0602	0.1816	762.5217	0.063418	-322.057728	-322.05057	-322.049625	-322.088638	25.689	
O	-0.0673774028	 1.3529930838	 0.010025961	-0.365369
N	 0.0712553179	-0.0168739056	 0.001370344	-0.162971
C	-1.0761597742	-0.6202784932	 0.0090835224	 0.090109
C	-1.0621817206	-2.0467264979	 0.0013163929	 0.286256
C	-1.0996197303	-3.2487413488	-0.0047631238	-0.445448
C	-2.3398837416	 0.0423178549	 0.0246841287	 0.345293
C	-3.4159574984	 0.5795679735	 0.0378231907	-0.486685
H	 0.8482547462	 1.6561046904	 0.0029171307	 0.319035
H	-1.1216637929	-4.3106294565	-0.0102492895	 0.207671
H	-4.3648074833	 1.0572748595	 0.0494285706	 0.212109
128.2152	182.3543	182.6112	266.5031	383.0754	427.1416	491.9748	551.1366	593.8492	610.9351	629.8418	649.8768	666.0169	701.8691	780.5725	1051.8755	1250.0867	1397.5389	1623.866	2228.2103	2236.9385	3499.2291	3502.1451	3801.5363
ON=C(C#C)C#C	ON=C(C#C)C#C	
InChI=1S/C5H3NO/c1-3-5(4-2)6-7/h1-2,7H	InChI=1S/C5H3NO/c1-3-5(4-2)6-7/h1-2,7H
