16
gdb 2376	4.43512	1.98202	1.78638	3.3467	61.84	-0.2437	0.0297	0.2734	778.3064	0.136667	-325.807685	-325.799975	-325.799031	-325.83934	28.182	
C	-0.3932706579	 1.4336637238	 0.114189496	-0.417113
C	-0.0077906835	-0.0280522636	 0.0707453531	 0.014056
C	 1.3659258785	-0.4725678507	-0.3182718971	-0.282101
C	 0.9114223399	-0.6713084528	 1.1140126658	-0.128502
C	 1.5553815277	 0.1681418702	 2.171914465	 0.417644
N	 1.4934454286	-0.3597167171	 3.4337096794	-0.533243
O	 2.1133757075	 1.229834545	 1.9479625518	-0.376915
H	 0.4329139088	 2.0446256157	 0.4806877873	 0.159709
H	-0.6688123136	 1.7808145438	-0.8877295006	 0.112278
H	-1.2559127751	 1.5946229868	 0.7704185475	 0.108974
H	-0.8121752823	-0.6914332088	-0.2385921243	 0.086865
H	 1.4886741726	-1.3537909656	-0.9378046588	 0.109457
H	 2.115663109	 0.3003657477	-0.4494687852	 0.140395
H	 0.6476562476	-1.6805027134	 1.4152601118	 0.074675
H	 0.9071215335	-1.1463670635	 3.650657255	 0.255532
H	 1.8230685689	 0.2137525424	 4.1931021935	 0.258289
72.5101	183.3886	210.5478	219.5381	248.8597	343.3096	407.9971	429.8154	572.7207	623.0841	735.8058	765.1006	805.3547	865.1373	906.3678	948.3583	1027.4606	1065.656	1079.5346	1103.8424	1127.335	1149.1863	1205.6433	1237.1047	1283.073	1392.2776	1423.842	1436.5684	1476.6854	1501.8029	1508.2593	1614.642	1775.7942	3032.9607	3087.5105	3126.0427	3135.0088	3146.3341	3151.1577	3228.5583	3600.2842	3735.582
CC1CC1C(N)=O	C[C@H]1C[C@H]1C(=O)N	
InChI=1S/C5H9NO/c1-3-2-4(3)5(6)7/h3-4H,2H2,1H3,(H2,6,7)	InChI=1S/C5H9NO/c1-3-2-4(3)5(6)7/h3-4H,2H2,1H3,(H2,6,7)/t3-,4+/m0/s1
