19
gdb 2552	2.85748	2.15814	1.43085	2.0769	63.93	-0.2497	0.0738	0.3234	922.4934	0.16985	-348.045786	-348.03679	-348.035846	-348.079296	31.52	
C	-0.6008463418	 1.0846654704	 0.552582425	-0.387314
C	-0.1798342897	-0.3321113888	 0.1584717714	-0.169175
C	 0.5871133769	-0.3937169612	-1.1631505093	 0.100137
C	 0.9913382937	-1.824628989	-1.5435552654	-0.06653
O	-0.1473434471	-2.6288906488	-1.7822043167	-0.421549
O	-0.2736144754	 0.1229679785	-2.1849834743	-0.255665
C	 0.3942351082	 0.6970788242	-3.2890169258	-0.240801
H	 0.2704115229	 1.7357518911	 0.6900192378	 0.106185
H	-1.2321022137	 1.5282005059	-0.2213374399	 0.129554
H	-1.1623981016	 1.0801961426	 1.4916001462	 0.111258
H	 0.4586973135	-0.7682634685	 0.9363985492	 0.094519
H	-1.0552129605	-0.9843910152	 0.0747529344	 0.113487
H	 1.4911844087	 0.2336379305	-1.0946216357	 0.061317
H	 1.6534469189	-1.8022856637	-2.4249068617	 0.081151
H	 1.5554128225	-2.2872377297	-0.7263227197	 0.105063
H	-0.736791363	-2.082751267	-2.3182917708	 0.285901
H	 1.0268708107	 1.5419370946	-2.97907094	 0.11157
H	 1.0243619445	-0.025595604	-3.8270042605	 0.111315
H	-0.3741938573	 1.0647014785	-3.9738110541	 0.129576
80.1508	101.1335	124.8386	164.7212	211.8251	245.7118	288.0147	317.3119	389.4813	470.3727	487.8729	671.7503	761.517	850.0414	882.5076	955.8333	996.8711	1051.3854	1089.5783	1118.7106	1134.014	1161.4474	1185.054	1226.8608	1230.0879	1287.4298	1311.1656	1365.4907	1373.8671	1405.1937	1411.8308	1432.8092	1478.7119	1483.1481	1487.4395	1497.396	1509.3765	1510.722	1515.6109	2960.408	2973.0777	2988.7493	3033.7717	3036.3866	3037.4095	3069.8024	3080.3714	3101.173	3112.6618	3124.8251	3769.4228
CCC(CO)OC	CC[C@@H](CO)OC	
InChI=1S/C5H12O2/c1-3-5(4-6)7-2/h5-6H,3-4H2,1-2H3	InChI=1S/C5H12O2/c1-3-5(4-6)7-2/h5-6H,3-4H2,1-2H3/t5-/m0/s1
