14
gdb 2940	6.34099	1.95214	1.61525	2.0715	53.63	-0.2525	0.0103	0.2628	740.368	0.115312	-361.720088	-361.713656	-361.712712	-361.750879	22.902	
O	 0.1109498181	 1.3652178902	 0.1067187204	-0.420898
C	 0.0591651027	-0.0393416506	 0.0269608857	-0.052788
C	-1.3860968814	-0.5369720454	-0.0748234251	-0.000887
C	-1.5413418213	-2.077277373	-0.0345019945	-0.127363
O	-2.3821600121	-2.3193141201	 1.1243895593	-0.217474
C	-2.6105539252	-1.1014983023	 1.6616068314	 0.127847
N	-2.1397426646	-0.0633907281	 1.1084139548	-0.290322
H	-0.5371542037	 1.6148011936	 0.7780136864	 0.296436
H	 0.6249976094	-0.3349948964	-0.8641352184	 0.106306
H	 0.5352627462	-0.5196439659	 0.8997529199	 0.083882
H	-1.8375681805	-0.0994150904	-0.9720169486	 0.099682
H	-2.0421708004	-2.4949962011	-0.9102758396	 0.127114
H	-0.593109375	-2.6026337796	 0.1215958473	 0.12134
H	-3.2105265621	-1.1175861609	 2.5649856809	 0.147124
78.2224	136.2699	226.0861	356.6816	423.7518	477.7038	591.3195	728.2295	829.7974	887.8188	927.8072	955.9276	969.1274	1036.8342	1050.5926	1098.7367	1136.9975	1142.9637	1212.291	1235.8754	1306.2754	1323.2112	1330.9421	1380.8747	1390.9646	1442.3693	1506.0411	1517.1452	1705.2331	2953.5366	3045.0994	3048.7848	3063.6726	3109.4895	3215.1092	3774.2821
OCC1COC=N1	OC[C@H]1COC=N1	
InChI=1S/C4H7NO2/c6-1-4-2-7-3-5-4/h3-4,6H,1-2H2	InChI=1S/C4H7NO2/c6-1-4-2-7-3-5-4/h3-4,6H,1-2H2/t4-/m0/s1
