19
gdb 2728	14.60084	0.7521	0.73158	0.3886	65.49	-0.2509	0.0796	0.3305	1530.448	0.169764	-348.039301	-348.029979	-348.029034	-348.073798	31.221	
C	-0.0228983992	 1.3813255028	 0.0228732223	-0.226979
O	 0.0009418495	-0.024159903	 0.0059620523	-0.230908
C	 0.6487333032	-0.549415332	-1.1323724162	-0.04769
C	 0.6197988991	-2.0694888332	-1.0523057334	-0.201225
C	 1.3026028404	-2.7332194437	-2.2507127841	-0.167947
C	 1.2756891312	-4.2537371091	-2.1742078943	-0.073224
O	 1.9298249999	-4.7617151189	-3.327462038	-0.422081
H	 0.9927028272	 1.8094980105	 0.0289046386	 0.101377
H	-0.559731637	 1.7937225136	-0.846931273	 0.10138
H	-0.5403425384	 1.6907515379	 0.934447062	 0.124864
H	 0.1468984056	-0.2035836195	-2.0535187672	 0.08318
H	 1.6909180878	-0.1870800294	-1.1824536813	 0.083163
H	 1.1055480752	-2.3767680019	-0.1180208605	 0.105261
H	-0.4259199481	-2.3930940085	-0.9815860392	 0.105308
H	 0.8170895129	-2.4261684796	-3.1853390402	 0.10575
H	 2.3484349843	-2.4097177953	-2.3220570725	 0.10567
H	 1.777323126	-4.5876963358	-1.2509528063	 0.084548
H	 0.2316269131	-4.6040409735	-2.1205903556	 0.084534
H	 1.9194971172	-5.7219635514	-3.2801572134	 0.285018
63.3952	86.5774	105.53	129.4949	150.8615	238.9489	265.7581	267.8254	314.9004	441.2289	524.8447	756.2096	817.4793	947.7993	970.5631	1018.8823	1051.9894	1066.7932	1096.8093	1165.6987	1172.4674	1192.3838	1213.8242	1225.4461	1247.8126	1285.9514	1300.0502	1313.7734	1321.0029	1376.684	1429.172	1464.3081	1482.0531	1485.2213	1492.3717	1500.7836	1507.8268	1529.2859	1534.9006	2940.3568	2958.8675	2965.8054	2965.9518	2983.9145	3005.9882	3025.2174	3034.0723	3057.3542	3081.918	3110.9487	3830.477
COCCCCO	COCCCCO	
InChI=1S/C5H12O2/c1-7-5-3-2-4-6/h6H,2-5H2,1H3	InChI=1S/C5H12O2/c1-7-5-3-2-4-6/h6H,2-5H2,1H3
