10
gdb 3029	16.52703	1.03901	1.03256	4.5482	62.46	-0.2879	-0.0606	0.2274	1036.4911	0.066378	-322.130736	-322.124301	-322.123357	-322.1615	21.695	
N	 0.0345951823	-3.7159589702	-0.0588439702	-0.328778
C	 0.0312477408	-2.5546258314	-0.0308955641	 0.213054
C	 0.0242895589	-1.190283286	 0.0039739594	 0.056279
C	 0.0200835632	 0.0173416783	 0.0435954063	 0.138856
C	-0.0115332294	 1.452383999	 0.0676767745	-0.143291
C	 0.522489472	 2.2100573607	 1.2208869384	-0.154716
O	 1.2484761359	 2.1317495017	 0.0034271977	-0.198518
H	-0.8024966327	 1.9071460356	-0.5269556713	 0.140125
H	 0.0833794086	 3.1791684504	 1.4512701525	 0.136427
H	 0.9479139003	 1.6638208119	 2.0598118167	 0.140562
99.9008	109.0166	248.7028	258.498	471.954	513.3516	577.6221	585.9324	690.3597	846.2683	889.1639	986.8727	1078.0503	1152.9742	1157.8152	1191.7508	1278.4563	1401.3407	1517.9783	2267.6151	2399.1847	3094.9617	3126.1518	3192.4623
N#CC#CC1CO1	N#CC#C[C@H]1CO1	
InChI=1S/C5H3NO/c6-3-1-2-5-4-7-5/h5H,4H2	InChI=1S/C5H3NO/c6-3-1-2-5-4-7-5/h5H,4H2/t5-/m0/s1
