12
gdb 2819	4.50953	1.96378	1.49224	2.9302	57.79	-0.2516	-0.0337	0.2179	777.1975	0.088338	-323.315925	-323.309051	-323.308106	-323.347011	24.4	
O	-0.330564785	 0.3669833944	 0.7686050961	-0.254408
C	 0.2500675866	 0.7718183338	-0.2059590871	 0.181103
C	 1.366259153	 1.7608898085	-0.1418821945	-0.118742
N	 2.3149433964	 1.7125326861	-1.2650791148	-0.317078
C	 1.4490662606	 2.8898001897	-1.1455920584	-0.237526
C	 0.456066086	 3.1088329942	-2.1624561145	 0.371943
C	-0.3763305921	 3.3330071255	-2.9995383368	-0.424609
H	 0.0018286924	 0.4369065936	-1.2342376483	 0.100319
H	 1.7232719335	 1.977944088	 0.8617054204	 0.113186
H	 3.2537417993	 1.9296122713	-0.9412209799	 0.2513
H	 1.8906905421	 3.8011958893	-0.7466672703	 0.126554
H	-1.1114353429	 3.5199949155	-3.743087412	 0.207958
83.3851	156.6038	204.202	305.9442	322.2933	475.5136	548.6605	571.5438	629.2956	671.3889	781.6497	859.8786	916.9979	961.3577	994.9302	1043.8267	1118.4677	1184.5011	1211.6169	1226.5108	1361.3083	1407.8763	1444.0465	1827.2932	2244.1602	2928.4582	3123.3464	3153.6457	3502.7196	3514.5052
O=CC1NC1C#C	O=C[C@H]1N[C@H]1C#C	
InChI=1S/C5H5NO/c1-2-4-5(3-7)6-4/h1,3-6H	InChI=1S/C5H5NO/c1-2-4-5(3-7)6-4/h1,3-6H/t4-,5+/m0/s1
