21
gdb 2721	12.88146	0.71947	0.69907	1.3734	72.02	-0.2613	0.0815	0.3428	1637.1265	0.193562	-312.126342	-312.116795	-312.115851	-312.160938	32.999	
C	 0.0125060215	 1.5780045878	 0.0104336806	-0.378972
C	 0.0000863905	 0.0469571186	 0.0023291188	-0.163941
C	-1.4133452638	-0.5448601872	 0.0126253328	-0.15587
C	-1.4349396938	-2.0770818129	 0.0046026376	-0.182639
C	-2.8506839333	-2.6608624281	 0.014964321	-0.165074
C	-2.8680952716	-4.183274418	 0.0069486705	-0.073319
O	-4.2232035569	-4.609256212	 0.0175915952	-0.421959
H	 1.034109537	 1.9708938348	 0.0028048686	 0.109722
H	-0.5063583408	 1.982467994	-0.8658749375	 0.113063
H	-0.489517036	 1.9729802995	 0.9007676379	 0.113063
H	 0.5391123819	-0.3195749435	-0.8815446104	 0.092776
H	 0.5558270455	-0.3289916564	 0.8717785649	 0.092776
H	-1.9538445977	-0.1787990266	 0.8967134288	 0.092157
H	-1.9705646553	-0.1693797621	-0.8570142672	 0.092157
H	-0.8937139201	-2.4415026385	-0.8799387809	 0.091506
H	-0.8769872723	-2.4509244469	 0.8747014157	 0.091506
H	-3.3963874594	-2.3126476955	 0.9007320513	 0.103026
H	-3.4131435002	-2.303202739	-0.8564418457	 0.103025
H	-2.3407242416	-4.5563213948	-0.886869038	 0.081548
H	-2.3238025525	-4.565850356	 0.8864806737	 0.081548
H	-4.2358817711	-5.5706470871	 0.0124855821	 0.283902
67.5303	84.8599	99.4342	145.7564	151.9628	243.9638	250.2618	268.0278	304.5963	426.9253	500.8208	735.4802	754.9189	810.603	896.3932	903.8594	1003.5402	1010.1885	1016.5418	1056.1101	1067.3758	1081.3213	1129.5195	1193.4213	1230.2648	1230.4449	1283.0768	1285.1859	1314.7857	1331.9041	1334.8568	1336.2461	1386.6647	1403.0103	1413.5326	1463.3214	1485.1842	1487.1946	1495.1374	1499.2174	1505.3472	1515.0917	1529.9149	2955.5373	2979.8788	3001.0856	3005.481	3016.3506	3022.7457	3028.532	3030.172	3035.0809	3055.7269	3074.9183	3094.9996	3100.1272	3829.4267
CCCCCCO	CCCCCCO	
InChI=1S/C6H14O/c1-2-3-4-5-6-7/h7H,2-6H2,1H3	InChI=1S/C6H14O/c1-2-3-4-5-6-7/h7H,2-6H2,1H3
