12
gdb 3211	3.54485	3.52494	2.13434	2.6297	50.	-0.2431	-0.0216	0.2216	603.575	0.089909	-360.47888	-360.472707	-360.471763	-360.508877	22.322	
O	-0.1293280053	 1.4893669181	 0.1208608841	-0.424045
C	-0.0361128585	 0.0922661893	 0.0240777905	-0.010551
C	-1.3579198536	-0.6597387879	-0.0133122935	-0.033825
C	-2.0945777377	-0.3795647577	-1.2496090432	-0.237981
N	-0.9771354483	-1.3784254966	-1.3251796361	-0.177412
C	 0.2209006073	-0.5579944454	-1.3615221984	 0.358668
O	 1.0891410505	-0.5118352875	-2.1746076209	-0.294929
H	 0.7396567819	 1.857966857	-0.0740314139	 0.30045
H	 0.6508573359	-0.3370874482	 0.7690179404	 0.106787
H	-1.7722544185	-1.2312492187	 0.8069993896	 0.118295
H	-3.064477133	-0.8450316756	-1.3856530794	 0.144455
H	-1.9695007606	 0.5781907032	-1.7457226491	 0.150088
138.5997	177.3207	255.2457	291.5177	495.1089	532.4749	659.7365	698.8236	743.6883	832.9451	861.6668	956.6343	1011.9016	1025.5911	1063.0433	1116.3181	1142.3075	1154.3991	1184.2325	1247.212	1296.5625	1364.0756	1421.1932	1506.2518	1920.3736	2997.8082	3130.4929	3206.5131	3224.335	3809.0046
OC1C2CN2C1=O	O[C@H]1[C@H]2CN2C1=O	
InChI=1S/C4H5NO2/c6-3-2-1-5(2)4(3)7/h2-3,6H,1H2	InChI=1S/C4H5NO2/c6-3-2-1-5(2)4(3)7/h2-3,6H,1H2/t2-,3+,5?/m1/s1
