15
gdb 2236	4.71385	2.77565	2.20187	1.2709	61.33	-0.2276	0.0209	0.2485	638.4994	0.125817	-308.508824	-308.502727	-308.501783	-308.538206	24.352	
O	-0.0464289403	 1.4331076205	 0.0793235141	-0.469006
C	 0.0057976263	 0.038882212	 0.0570483278	 0.378259
C	-0.3798488159	-0.7234861652	-1.1916556937	-0.338472
C	-1.2616640042	-0.7888702339	 0.0412545807	-0.080017
C	-1.0708708213	-1.9508394527	 1.0125596585	-0.273621
C	 0.3574853527	-1.7794248988	 1.4933783318	-0.070965
C	 0.9280834541	-0.6839798321	 0.9893405178	-0.144235
H	 0.6213829306	 1.7668851966	-0.5288160974	 0.282297
H	-0.7741777769	-0.1351893137	-2.0147112335	 0.108558
H	 0.2080776352	-1.5893180819	-1.4807670721	 0.108663
H	-2.2213885981	-0.290507144	-0.0171406362	 0.094844
H	-1.7820559837	-1.90649973	 1.8480854846	 0.110025
H	-1.2245506105	-2.92455307	 0.5290942843	 0.109615
H	 0.8408442577	-2.4970048973	 2.1468579577	 0.094064
H	 1.9374012442	-0.3398907294	 1.1865486658	 0.089989
223.2452	269.6102	283.4608	371.2949	430.3262	490.9421	608.4135	727.5168	738.0869	771.9682	835.7791	901.2406	915.596	933.1622	949.9479	971.8514	1019.1915	1048.6725	1065.7565	1082.2657	1126.97	1189.5981	1235.2793	1247.9667	1311.4197	1332.5234	1353.1277	1406.0128	1466.8697	1480.8792	1669.7718	3016.5301	3043.3222	3115.6492	3183.2126	3188.688	3208.0568	3209.3345	3803.6985
OC12CC1CC=C2	O[C@]12C[C@H]1CC=C2	
InChI=1S/C6H8O/c7-6-3-1-2-5(6)4-6/h1,3,5,7H,2,4H2	InChI=1S/C6H8O/c7-6-3-1-2-5(6)4-6/h1,3,5,7H,2,4H2/t5-,6-/m1/s1
