16
gdb 2716	8.31652	0.94886	0.91489	3.3611	58.96	-0.251	0.0328	0.2838	1222.2008	0.136106	-362.932378	-362.92387	-362.922926	-362.966671	28.337	
O	-0.1376012327	 1.3819659617	 0.3897581127	-0.420061
C	 0.0030822802	 0.019443762	 0.0211866695	-0.06946
C	-1.3838139545	-0.610756123	 0.0404519466	-0.173537
C	-1.3634228903	-2.0780059799	-0.3973807375	-0.161177
N	-2.6851406477	-2.6839984351	-0.3801588404	-0.275464
C	-3.0205895419	-3.7189946278	 0.4359941277	 0.154866
O	-2.2712535454	-4.2768059331	 1.2094638583	-0.322001
H	 0.7378175919	 1.7787871698	 0.4168232166	 0.28753
H	 0.4438849375	-0.0782667942	-0.9852008415	 0.084702
H	 0.6647647778	-0.5191995766	 0.7185861098	 0.094217
H	-1.7998732032	-0.5332847744	 1.0505088076	 0.121838
H	-2.0373400882	-0.026590513	-0.6199679911	 0.100856
H	-0.9313732154	-2.1668155119	-1.4032233721	 0.107518
H	-0.7510550718	-2.6796643044	 0.278816796	 0.151566
H	-3.4060999124	-2.2902439444	-0.9640507832	 0.24581
H	-4.0830786139	-4.0086298656	 0.3102195509	 0.072798
28.9661	84.8015	113.462	147.2551	255.7888	265.1849	277.423	405.8477	467.1341	538.1149	742.4804	788.3026	890.9815	980.2809	1025.6377	1039.3274	1051.5925	1089.2753	1164.3859	1207.5197	1232.0589	1245.3139	1310.7383	1316.5628	1326.6933	1404.7465	1431.7369	1465.6693	1489.1692	1501.9561	1529.265	1536.9272	1807.3375	2932.8625	2957.1479	2985.914	3014.8728	3031.6591	3083.1554	3114.0932	3631.091	3830.8121
OCCCNC=O	OCCCNC=O	
InChI=1S/C4H9NO2/c6-3-1-2-5-4-7/h4,6H,1-3H2,(H,5,7)	InChI=1S/C4H9NO2/c6-3-1-2-5-4-7/h4,6H,1-3H2,(H,5,7)
