13
gdb 3003	5.42771	1.95347	1.6045	1.8404	51.08	-0.2707	-0.0074	0.2633	763.9888	0.100435	-381.591448	-381.584224	-381.58328	-381.62334	24.09	
C	-0.2532840025	 1.3318628941	-0.2371892672	-0.239899
O	-0.3698738168	-0.0250139284	-0.6863229702	-0.224987
C	 0.7754204869	-0.5923533245	-1.0935790153	 0.431948
O	 1.8508024914	-0.0467088603	-1.0933039019	-0.366511
C	 0.5804483265	-2.013469784	-1.5361130865	-0.032497
C	-0.3292101975	-2.9230845847	-0.8120160891	-0.165595
O	-0.6837122533	-2.3864379389	-2.0765286901	-0.211308
H	 0.4163110429	 1.3961989869	 0.6242399031	 0.142092
H	 0.1387138971	 1.9665650982	-1.0354867902	 0.145902
H	-1.261916391	 1.6399743681	 0.0367557304	 0.137681
H	 1.4536720852	-2.4176238693	-2.0421082972	 0.123285
H	-0.0977690013	-3.9868707505	-0.7942637249	 0.127024
H	-0.8952257776	-2.5389710366	 0.033450229	 0.132864
74.5116	116.1127	145.3772	188.033	309.5306	321.6133	471.2544	644.0235	762.9858	832.2228	885.872	915.6238	977.4106	1073.422	1100.7818	1158.0037	1169.7094	1179.6814	1210.4045	1263.9313	1311.7235	1399.5767	1475.2607	1482.0422	1497.3601	1515.0139	1818.8024	3053.6647	3093.7028	3129.0922	3154.6314	3163.7361	3190.6148
COC(=O)C1CO1	COC(=O)[C@H]1CO1	
InChI=1S/C4H6O3/c1-6-4(5)3-2-7-3/h3H,2H2,1H3	InChI=1S/C4H6O3/c1-6-4(5)3-2-7-3/h3H,2H2,1H3/t3-/m1/s1
