14
gdb 2318	6.71869	1.47692	1.3421	4.5785	57.76	-0.276	0.0414	0.3174	869.3087	0.113112	-324.571682	-324.564481	-324.563536	-324.603339	25.682	
O	-0.0895032437	 1.44165381	 0.1900228977	-0.415411
C	 0.0167303841	 0.0504407556	 0.0980552553	 0.083895
C	-0.6140907769	-0.8132423471	 1.1610318647	-0.315689
C	-1.2504782943	-0.6967866935	-0.2086966315	-0.014866
C	-2.5441308793	 0.0839366042	-0.3793595857	-0.358171
C	-3.7186394218	-0.6776286327	 0.0469089449	 0.264355
N	-4.640063533	-1.2881652355	 0.3839724279	-0.311476
H	 0.4730784202	 1.7386237364	 0.9125852184	 0.294927
H	 0.930612574	-0.3059725272	-0.3760197866	 0.097399
H	-0.1373823978	-1.7464176458	 1.4385972184	 0.123062
H	-1.1097053135	-0.2954503833	 1.9760715762	 0.125033
H	-1.1580158613	-1.5578701744	-0.8624452941	 0.109126
H	-2.4906938763	 1.0144415608	 0.1927934137	 0.164338
H	-2.6794215006	 0.3728867625	-1.4281872594	 0.153478
55.3511	129.7342	226.5468	301.7841	311.7812	391.1016	440.5021	524.9947	570.0794	773.2741	829.9742	887.7392	897.8368	935.7822	1000.4123	1042.1737	1064.6925	1128.0866	1142.2968	1175.1034	1236.5447	1243.1591	1300.6612	1315.2212	1392.2706	1425.1541	1465.7922	1489.7896	2362.0352	3048.5994	3100.2359	3105.5562	3134.3786	3164.7999	3224.1533	3812.6269
OC1CC1CC#N	O[C@H]1C[C@H]1CC#N	
InChI=1S/C5H7NO/c6-2-1-4-3-5(4)7/h4-5,7H,1,3H2	InChI=1S/C5H7NO/c6-2-1-4-3-5(4)7/h4-5,7H,1,3H2/t4-,5+/m1/s1
