8
gdb 3840	5.66168	3.22484	2.18042	1.3934	46.12	-0.2842	-0.1201	0.1641	528.0038	0.041434	-387.475673	-387.470305	-387.469361	-387.504808	18.939	
N	-0.0828076529	 1.2732818124	 0.0721854913	-0.427193
C	-0.0122714344	 0.0232240146	-0.0752879215	 0.451876
N	 1.1863815053	-0.7103799369	-0.2466667297	-0.143407
N	 1.2470470137	-1.853988313	 0.2234289079	 0.087624
O	 0.0928684196	-2.3633638008	 0.8470810629	-0.234759
N	-1.1797613469	-1.8880570856	 0.3193027966	 0.08471
N	-1.2009410741	-0.7489586857	-0.1307912926	-0.079739
H	 0.8572740096	 1.677301855	 0.0758299151	 0.260886
134.7204	313.1526	418.5492	423.1406	511.8825	573.3751	686.3858	754.0657	777.7795	841.6404	936.8187	1041.4391	1057.898	1299.3545	1538.6833	1660.5868	1750.5786	3467.2652
N=C1N=NON=N1	[NH]C1=N[N]ON=N1	
InChI=1S/CHN5O/c2-1-3-5-7-6-4-1/h2H	InChI=1S/CHN5O/c2-1-3-5-7-6-4-1/h2H
