9
gdb 3639	9.7748	1.98615	1.65074	3.3419	53.58	-0.2604	-0.0535	0.2069	666.3629	0.054277	-338.175569	-338.170014	-338.16907	-338.204838	20.031	
C	 0.0575506879	-1.1830696385	-0.0048102642	-0.426422
C	 0.0016911793	 0.0181316655	 0.0026290675	 0.286944
C	-0.0645389887	 1.4258032004	 0.0113689358	 0.140629
C	-1.142365475	 2.2651468453	 0.0308006835	-0.063699
O	-0.7272169649	 3.5192829251	 0.031631117	-0.154806
N	 0.7222793042	 3.4573639969	 0.0123651081	 0.000259
N	 1.0526133483	 2.253966478	 0.000613861	-0.172072
H	 0.1091598599	-2.2440453011	-0.0114039967	 0.208749
H	-2.2045361509	 2.0838856484	 0.0442394081	 0.180418
169.4621	179.5876	474.5145	524.7694	541.7137	593.2577	600.0008	638.0481	693.0124	719.0836	867.0595	969.7543	1031.158	1158.2355	1236.1057	1318.0749	1492.4448	1579.8793	2249.1923	3287.761	3501.5361
C#CC1=CON=N1	C#Cc1conn1	
InChI=1S/C4H2N2O/c1-2-4-3-7-6-5-4/h1,3H	InChI=1S/C4H2N2O/c1-2-4-3-7-6-5-4/h1,3H
