16
gdb 797	4.807	1.54627	1.41468	0.7169	60.44	-0.2497	0.0055	0.2552	903.075	0.134033	-362.862736	-362.854073	-362.853129	-362.8963	29.454	
C	 0.5177831555	 0.728747455	 0.3327341239	-0.235286
O	 0.8810262402	 0.4274023797	-0.999376667	-0.22765
C	 0.065506225	-0.5668945655	-1.592858593	-0.149824
C	 0.3500362656	-1.953328978	-1.0585521729	 0.344417
C	 1.755180517	-2.4790527227	-1.1331248824	-0.480739
N	-0.6575698904	-2.5801401974	-0.5830448724	-0.161579
O	-0.3221042083	-3.87260204	-0.1538538335	-0.394831
H	-0.5156650333	 1.1029218031	 0.3920851664	 0.108771
H	 0.6037444523	-0.143082779	 0.9962508673	 0.114744
H	 1.1992543599	 1.5088463251	 0.6799670428	 0.127133
H	-1.0030159803	-0.3459375444	-1.4633853727	 0.106509
H	 0.3017192108	-0.5324382509	-2.6635308678	 0.11268
H	 2.4601971095	-1.6466583002	-1.177540382	 0.140346
H	 1.979092741	-3.1135129673	-0.2735129967	 0.147817
H	 1.8873043577	-3.0925284698	-2.0327775083	 0.141097
H	-1.1593285423	-4.1916491979	 0.1993308785	 0.306396
60.8763	86.9006	101.4523	159.1025	243.9258	300.9578	316.2062	383.1439	414.5858	473.1772	540.7914	666.6436	817.8418	928.9342	959.1522	987.7925	1047.8562	1085.4518	1130.1668	1182.6443	1217.3957	1267.0628	1305.2306	1377.1181	1397.7372	1405.7185	1471.6719	1478.1321	1484.4051	1485.4485	1488.5468	1510.0835	1732.5239	2984.0101	3008.9042	3037.2905	3038.8988	3061.8248	3108.6701	3118.2181	3148.5269	3818.7258
COCC(C)=NO	COCC(=NO)C	
InChI=1S/C4H9NO2/c1-4(5-6)3-7-2/h6H,3H2,1-2H3	InChI=1S/C4H9NO2/c1-4(5-6)3-7-2/h6H,3H2,1-2H3
