15
gdb 2054	4.46379	2.6302	1.80077	2.7361	62.18	-0.2363	-0.0119	0.2244	701.2872	0.126398	-308.555419	-308.549155	-308.548211	-308.58569	23.581	
O	 0.0172559231	-0.0803135333	-0.0460982164	-0.309991
C	-0.0112594886	 1.1233032558	 0.0562239542	 0.391024
C	-1.3031578802	 1.9187584116	 0.1213455131	-0.298428
C	-1.3216912329	 2.8681638484	 1.3363365808	-0.257989
C	-0.0252330694	 3.6214599049	 1.4780151312	-0.054493
C	 1.1182438028	 3.2254603992	 0.9212171065	-0.050646
C	 1.2631748942	 1.9605435289	 0.1138013973	-0.349226
H	-1.3590719235	 2.5253084838	-0.7932544044	 0.121221
H	-2.1470900785	 1.22568045	 0.1240632435	 0.118918
H	-2.1587524222	 3.5694445905	 1.2411443711	 0.111981
H	-1.5206145159	 2.2958880804	 2.2538376594	 0.124309
H	-0.0449396756	 4.5294420659	 2.0753145104	 0.091714
H	 2.0212809314	 3.8152176388	 1.0582527115	 0.093406
H	 2.0684403504	 1.3248021389	 0.4988383695	 0.134396
H	 1.5497858549	 2.2011329662	-0.9223011675	 0.133806
86.2598	161.0224	379.2604	399.0061	465.4891	493.8892	576.363	679.8097	723.2737	760.8561	881.2767	898.7241	951.9822	971.3574	1003.1093	1040.8242	1048.8437	1126.8177	1168.0204	1210.5542	1236.3769	1257.7045	1321.7849	1334.3267	1371.6978	1412.822	1443.0916	1466.8541	1485.854	1728.1116	1822.4589	2994.3819	3008.1866	3021.9397	3053.8039	3064.5207	3112.9649	3147.679	3170.8961
O=C1CCC=CC1	O=C1CCC=CC1	
InChI=1S/C6H8O/c7-6-4-2-1-3-5-6/h1-2H,3-5H2	InChI=1S/C6H8O/c7-6-4-2-1-3-5-6/h1-2H,3-5H2
