12
gdb 4451	3.54503	1.97955	1.27986	2.663	54.43	-0.2067	0.0412	0.248	866.3575	0.083302	-451.80177	-451.794347	-451.793403	-451.833462	26.88	
N	 0.0042807268	 1.4224890496	 0.0112557937	-0.594095
C	-0.0751469761	 0.0468107223	-0.0075727263	 0.147746
C	-1.1051046273	-0.7975341762	-0.0108077146	 0.35593
O	-2.4243384998	-0.5995430646	-0.035242014	-0.41117
O	-0.6604771814	-2.101663045	-0.0399206748	-0.258167
C	 0.7287818832	-2.0462540299	-0.0539730616	 0.505394
N	 1.522222001	-3.0201568562	-0.0649776522	-0.576969
O	 1.1061215117	-0.7535987695	-0.0546665899	-0.226901
H	 0.5012252492	 1.7836647197	 0.8188095478	 0.254003
H	 0.4158398806	 1.8140520444	-0.829766405	 0.254381
H	-2.8605929186	-1.3913509884	 0.3025240938	 0.316763
H	 1.0134837808	-3.8999751962	-0.067762497	 0.233084
111.8079	150.4388	221.0572	278.1171	285.2779	343.604	376.1343	572.6946	626.6739	646.2494	666.2752	730.3517	748.8292	766.2386	830.4114	940.362	1005.5161	1051.3911	1183.8823	1220.7618	1255.7505	1370.8387	1409.6478	1662.5495	1794.2783	1898.5586	3499.5048	3548.8014	3565.7565	3803.3793
NC1=C(O)OC(=N)O1	NC1=C(O)O[C@@H]([NH])O1	
InChI=1S/C3H4N2O3/c4-1-2(6)8-3(5)7-1/h5-6H,4H2	InChI=1S/C3H5N2O3/c4-1-2(6)8-3(5)7-1/h3,5-6H,4H2/t3-/m0/s1
