14
gdb 3558	5.16949	2.94387	2.61934	1.6581	55.92	-0.247	0.0618	0.3088	569.4784	0.115292	-324.510378	-324.504877	-324.503933	-324.539333	21.639	
O	-0.0342242645	 1.488471732	-0.0695705748	-0.435468
C	-0.0272843068	 0.0813617246	-0.0845637356	 0.139467
C	-1.3695438036	-0.602938425	-0.1607510985	-0.06651
C	-1.7483087624	-0.7430641306	-1.5974511667	-0.030337
C	-0.6671154176	-0.1108770379	-2.4564275216	-0.230757
C	 0.282290367	-0.6872802778	-1.3927847798	-0.062345
N	-0.8011523715	-1.7379530119	-0.9840361754	-0.169412
H	 0.8532629784	 1.7984036986	 0.136061637	 0.285612
H	 0.5575985009	-0.3353926207	 0.7453972443	 0.081874
H	-2.0694782513	-0.7885360599	 0.6454264611	 0.094714
H	-2.7513685909	-1.0355787713	-1.8867681157	 0.09616
H	-0.5656241159	-0.6373062544	-3.4083960264	 0.108285
H	-0.6686146442	 0.9714064173	-2.6100319489	 0.110794
H	 1.2898541325	-1.020370073	-1.6351051691	 0.077924
216.9051	259.3525	308.1859	483.6256	585.7344	727.0981	761.5819	779.0571	811.4392	832.2002	931.1227	951.7874	987.7785	1007.9217	1022.7919	1045.1227	1069.9599	1116.3158	1137.9066	1153.1643	1195.4992	1207.3814	1250.0107	1265.9265	1300.6371	1357.1139	1380.1366	1441.7463	1486.5524	3026.8576	3061.3586	3118.803	3134.5634	3178.389	3191.9667	3821.52
OC1C2C3CC1N23	O[C@H]1[C@H]2[C@H]3C[C@@H]1N23	
InChI=1S/C5H7NO/c7-5-3-1-2-4(5)6(2)3/h2-5,7H,1H2	InChI=1S/C5H7NO/c7-5-3-1-2-4(5)6(2)3/h2-5,7H,1H2/t2-,3+,4-,5-,6?/m1/s1
