8
gdb 189	9.39188	4.18355	2.8943	4.4195	36.02	-0.253	0.0027	0.2556	406.9334	0.050756	-341.145624	-341.141349	-341.140405	-341.173218	15.099	
O	 0.002032296	 0.0030976283	 0.0031974156	-0.363377
C	-0.0140876365	 1.1895787907	 0.0095302424	 0.515237
O	-1.132130105	 1.9823079567	 0.0287676638	-0.208503
C	-0.70689282	 3.2954973827	 0.0299074907	-0.038256
C	 0.6212504111	 3.3136373516	 0.0121781075	-0.038257
O	 1.0820030839	 2.0125474282	-0.0008348254	-0.208502
H	-1.4620993684	 4.0607448555	 0.0440635469	 0.170828
H	 1.3553915189	 4.0992229663	 0.0064512184	 0.170828
246.3333	523.9343	580.5667	726.5612	745.3743	787.9814	807.0881	901.0158	904.8425	1025.8061	1099.3809	1124.2091	1193.3319	1366.8089	1676.8818	1946.4611	3298.3953	3324.1173
O=C1OC=CO1	O=c1occo1	
InChI=1S/C3H2O3/c4-3-5-1-2-6-3/h1-2H	InChI=1S/C3H2O3/c4-3-5-1-2-6-3/h1-2H
