14
gdb 4477	3.54077	1.88041	1.23904	2.0378	61.55	-0.1843	0.0368	0.2211	925.682	0.10761	-415.903644	-415.895895	-415.894951	-415.935334	28.514	
C	 0.1774274058	 1.5049409995	 0.0844760092	-0.502922
C	-0.0250073238	 0.0413470929	 0.0147261904	 0.215575
C	-1.0742269033	-0.7873361807	-0.1880422458	 0.252815
O	-2.3632788151	-0.4483145063	-0.4036781409	-0.437925
N	-0.6840795998	-2.1180799274	-0.1610324772	-0.419561
C	 0.5946382893	-2.0444735679	 0.0661088624	 0.456398
N	 1.4694343558	-3.0832768927	 0.2601867655	-0.586835
O	 1.0872158833	-0.8031810143	 0.1846938767	-0.218909
H	 0.8674715927	 1.8691029127	-0.6872160329	 0.127711
H	-0.7861650222	 1.9980617837	-0.0667824354	 0.146903
H	 0.5721260803	 1.8257849883	 1.056697144	 0.129974
H	-2.8495200572	-1.2752810811	-0.4999792226	 0.30231
H	 1.1341093775	-3.9591949532	-0.1117745352	 0.269785
H	 2.4268956067	-2.8786429334	 0.0145237018	 0.264682
146.0482	179.0518	236.5876	239.902	292.1282	321.0428	335.1623	375.2392	530.991	588.0483	642.1762	659.4366	686.24	758.5709	833.7757	959.474	1036.5829	1069.6686	1103.905	1149.0682	1200.5642	1323.7052	1396.0677	1426.7102	1453.3607	1471.5173	1499.5886	1604.4224	1681.3378	1762.1353	3013.7301	3056.3964	3122.2036	3577.3923	3686.9053	3816.1859
CC1=C(O)N=C(N)O1	Cc1c(O)nc(N)o1	
InChI=1S/C4H6N2O2/c1-2-3(7)6-4(5)8-2/h7H,1H3,(H2,5,6)	InChI=1S/C4H6N2O2/c1-2-3(7)6-4(5)8-2/h7H,1H3,(H2,5,6)
