11
gdb 347	8.75975	2.3713	1.88895	3.0753	50.21	-0.2527	-0.0407	0.2121	618.7695	0.084889	-281.484877	-281.478065	-281.477121	-281.515408	22.345	
C	-0.0067320333	 1.4471946335	-0.0238804247	-0.317579
N	 0.0032628764	 0.0002865662	 0.0740777042	-0.302655
C	 0.6496254138	-0.6247410978	 1.0969463439	 0.296138
N	 1.1964161876	 0.0188433384	 2.0604899145	-0.521207
C	 0.6422599627	-2.078098529	 1.0016329375	 0.227916
N	 0.6649539069	-3.233381637	 0.957736633	-0.320415
H	 1.001092046	 1.8527074589	-0.1741631276	 0.142318
H	-0.6428529154	 1.7367726441	-0.8618197465	 0.129474
H	-0.4040579854	 1.879150294	 0.8982933146	 0.15866
H	-0.2556055712	-0.54800494	-0.727416776	 0.267094
H	 1.594179382	-0.6157419613	 2.7476403872	 0.240257
106.2476	129.4199	167.7825	257.723	307.0759	359.0463	525.8874	596.9014	725.0686	820.6903	863.0675	1040.062	1155.3258	1175.7289	1192.4492	1326.6036	1454.8343	1473.8693	1509.1848	1553.4073	1687.5172	2348.0214	3031.7117	3099.3056	3143.8415	3537.3304	3673.8853
CNC(=N)C#N	CNC(=N)C#N	
InChI=1S/C3H5N3/c1-6-3(5)2-4/h1H3,(H2,5,6)	InChI=1S/C3H5N3/c1-6-3(5)2-4/h1H3,(H2,5,6)
