14
gdb 804	8.02753	1.50998	1.33081	1.6073	57.9	-0.2421	0.0067	0.2488	858.7692	0.111964	-361.653332	-361.646166	-361.645221	-361.684535	26.231	
O	-0.194741271	 1.3591026475	 0.5587433027	-0.395287
N	 0.0172976343	-0.0272656065	 0.4193599087	-0.231387
C	-0.9801101197	-0.5825272935	-0.1272727643	 0.411636
C	-2.3602305324	-0.150638684	-0.5774272419	-0.323811
C	-2.7569041135	-1.6511564771	-0.566341535	 0.133261
O	-3.4248911951	-2.0455204744	-1.7383559865	-0.427525
C	-1.2444073982	-2.0439805331	-0.4144689832	-0.342528
H	 0.6151067609	 1.6434448869	 0.9955981372	 0.305618
H	-2.9048213389	 0.5356443736	 0.0737192494	 0.127959
H	-2.3649428586	 0.2447912003	-1.5987853647	 0.136847
H	-3.3283890455	-1.91198374	 0.3341515314	 0.078121
H	-3.6300889394	-2.9836033772	-1.6717791976	 0.286121
H	-0.8330432111	-2.3619930778	-1.3789528227	 0.124614
H	-0.969367852	-2.7685817647	 0.3555918165	 0.11636
68.446	190.2647	260.0057	284.0238	352.1967	375.0166	434.4114	471.1251	532.119	671.3802	778.1502	796.4239	924.0991	948.5138	971.8059	1026.056	1045.8799	1126.7773	1177.2256	1186.1969	1200.6983	1246.1773	1249.8572	1317.465	1403.7738	1422.4018	1442.4337	1466.941	1789.6598	3013.2248	3046.4308	3059.0201	3110.7408	3121.7813	3816.7686	3819.2089
ON=C1CC(O)C1	ON=C1C[C@@H](O)C1	
InChI=1S/C4H7NO2/c6-4-1-3(2-4)5-7/h4,6-7H,1-2H2	InChI=1S/C4H7NO2/c6-4-1-3(2-4)5-7/h4,6-7H,1-2H2/t4-
