14
gdb 3039	5.39682	1.82938	1.46949	3.1261	57.57	-0.2705	0.0117	0.2822	808.4726	0.112811	-324.556404	-324.549316	-324.548372	-324.58816	24.866	
N	 0.7799768061	-0.3235911971	 1.0812324756	-0.308343
C	 0.3221720586	 0.5381263361	 0.4627562169	 0.261975
C	-0.27593448	 1.6264297697	-0.3379560677	-0.195962
O	 0.6695142004	 2.4725472074	-0.9424423227	-0.228995
C	 1.31374162	 3.3433123512	-0.0484992042	 0.131729
C	 2.5805423447	 2.9049904822	 0.6377729049	-0.279853
C	 2.6209432068	 3.8968600352	-0.5079457441	-0.290092
H	-0.8601445351	 1.1768748156	-1.1466661763	 0.161061
H	-0.9702437995	 2.1855006475	 0.3074509875	 0.140442
H	 0.6264782405	 3.9951080906	 0.4912089558	 0.091625
H	 2.7667897698	 3.2571971942	 1.6460890088	 0.121013
H	 2.9286463262	 1.8998230561	 0.4345197761	 0.142266
H	 2.9879354602	 3.5344033625	-1.4612168195	 0.132713
H	 2.8389468915	 4.9379505987	-0.300127951	 0.12042
58.4169	92.4571	220.9351	254.8889	368.6874	410.4081	430.2345	620.6845	742.5203	807.726	825.1337	900.2156	953.5332	973.5732	1048.9925	1057.9593	1076.609	1097.8881	1127.7098	1188.1861	1192.1147	1240.2899	1304.014	1376.8948	1412.8714	1455.2784	1469.9723	1497.8722	2357.8351	3000.1327	3089.5251	3100.9811	3143.7984	3148.1087	3228.9245	3243.1036
N#CCOC1CC1	N#CCOC1CC1	
InChI=1S/C5H7NO/c6-3-4-7-5-1-2-5/h5H,1-2,4H2	InChI=1S/C5H7NO/c6-3-4-7-5-1-2-5/h5H,1-2,4H2
