15
gdb 1526	8.05116	1.27311	1.12236	3.1154	54.75	-0.2673	0.0196	0.2869	1029.4536	0.122602	-382.817123	-382.808605	-382.807661	-382.850937	28.091	
C	-0.1754545744	 1.4935294405	 0.0126028457	-0.391381
C	-0.0206998431	-0.0148980471	 0.0023525001	-0.040328
O	-1.3425375762	-0.5907376358	 0.0121986026	-0.24945
C	-1.3943160495	-1.9384970087	 0.0051137954	 0.436409
O	-0.4356164802	-2.6600491797	-0.0082702312	-0.333942
C	-2.8499724279	-2.3793646883	 0.0157898931	-0.189392
O	-2.898115013	-3.782260627	 0.011278009	-0.3928
H	 0.8108616215	 1.966975635	 0.0055091124	 0.124215
H	-0.7283596679	 1.8360113372	-0.8666268336	 0.129292
H	-0.7106797451	 1.8257572303	 0.9065844081	 0.129304
H	 0.5118901298	-0.366962788	-0.8868048587	 0.123565
H	 0.5294559041	-0.3771489086	 0.8765864971	 0.123603
H	-3.3241735063	-1.9342942166	 0.9049524661	 0.118283
H	-3.3386379144	-1.9282195308	-0.8624597479	 0.118312
H	-3.8227819374	-4.0456219124	 0.0168567319	 0.294311
47.0608	69.3737	130.5036	152.7019	213.5433	256.9807	296.5377	356.7973	457.1123	591.9225	693.4575	807.7297	883.7623	930.7375	1039.495	1052.8742	1132.0049	1138.4443	1183.5724	1202.1729	1245.4362	1262.9492	1291.83	1396.2662	1421.4367	1459.0563	1486.0811	1496.3182	1497.7853	1521.4053	1849.0333	2976.7201	3002.4766	3046.1836	3051.4913	3089.1365	3120.3403	3126.038	3839.1703
CCOC(=O)CO	CCOC(=O)CO	
InChI=1S/C4H8O3/c1-2-7-4(6)3-5/h5H,2-3H2,1H3	InChI=1S/C4H8O3/c1-2-7-4(6)3-5/h5H,2-3H2,1H3
