14
gdb 904	7.48187	2.05024	1.62925	3.1927	60.5	-0.1822	0.0386	0.2207	744.091	0.115616	-320.79136	-320.784536	-320.783592	-320.821974	24.717	
C	-0.0165635803	 1.4528357045	-0.001531804	-0.335473
N	 0.0099974235	 0.0078474142	 0.0245198923	 0.032376
C	-0.0586654526	-0.8280096887	-1.0396770684	 0.001406
N	-0.0132134236	-2.0971382286	-0.6868640674	-0.322084
C	 0.0960792054	-2.0866178283	 0.680656307	 0.290233
N	 0.2337934489	-3.2882196262	 1.3817144089	-0.594497
C	 0.1135346813	-0.794117762	 1.1533726932	-0.213039
H	 0.9043550782	 1.8706873188	 0.4186227324	 0.141588
H	-0.1094697148	 1.787714914	-1.0365936863	 0.142724
H	-0.8677590479	 1.8404817709	 0.5681317756	 0.139796
H	-0.1444990715	-0.4571441097	-2.0507146601	 0.121234
H	-0.091769654	-4.0633480915	 0.8183098801	 0.246987
H	-0.2312983929	-3.2884726848	 2.2794939886	 0.238922
H	 0.1955269503	-0.3752546526	 2.1419365582	 0.109827
98.3855	167.9541	222.6339	287.4746	332.8133	440.2273	611.2982	625.2317	633.8093	689.8041	754.7217	789.2897	801.5265	1006.4996	1051.4061	1079.3892	1104.3342	1151.6855	1208.7424	1266.3833	1351.7045	1411.2412	1436.2902	1457.916	1479.2386	1522.2855	1553.1779	1615.8763	1647.2753	3032.4004	3089.0742	3132.737	3242.5538	3273.786	3542.2638	3638.1721
CN1C=NC(N)=C1	Cn1cnc(N)c1	
InChI=1S/C4H7N3/c1-7-2-4(5)6-3-7/h2-3H,5H2,1H3	InChI=1S/C4H7N3/c1-7-2-4(5)6-3-7/h2-3H,5H2,1H3
