12
gdb 509	9.0195	2.12799	1.74027	4.5664	52.58	-0.2408	-0.0172	0.2236	680.2345	0.095665	-302.567313	-302.560613	-302.559669	-302.597876	22.098	
C	-0.1492666798	 1.5777937667	 0.106475711	-0.311658
N	 0.0389065281	 0.1441178966	 0.1430056619	-0.1563
C	-0.9549545783	-0.5766114038	-0.1398303562	 0.10229
N	-0.9461859816	-1.9737637141	-0.152706107	-0.317631
C	 0.0914857332	-2.8490422168	 0.1251111605	 0.166605
O	 1.2146070147	-2.5616963299	 0.438224403	-0.260795
H	 0.5561515998	 2.0193030284	-0.6065267105	 0.133894
H	-1.1701033986	 1.889663994	-0.1723422302	 0.092602
H	 0.0873951927	 2.0010036107	 1.0892049983	 0.133888
H	-1.9466872711	-0.1814503745	-0.4097860459	 0.084279
H	-1.8220471849	-2.4088252187	-0.3985951772	 0.255565
H	-0.2635967241	-3.8952480885	 0.0162829223	 0.07726
92.0292	162.3619	188.446	218.2211	328.9811	378.3007	531.4287	588.0165	854.2397	969.419	992.6927	1023.2522	1059.7836	1139.6624	1157.0143	1233.5849	1411.3622	1443.7144	1452.9479	1476.3575	1501.7905	1532.4177	1769.4454	1850.6115	2912.871	2959.2526	2992.1203	3061.1523	3081.9321	3628.5881
CN=CNC=O	CN=CNC=O	
InChI=1S/C3H6N2O/c1-4-2-5-3-6/h2-3H,1H3,(H,4,5,6)	InChI=1S/C3H6N2O/c1-4-2-5-3-6/h2-3H,1H3,(H,4,5,6)
