12
gdb 581	13.22277	1.83311	1.72507	2.8138	47.21	-0.2535	-0.0285	0.2249	676.0308	0.094736	-306.349032	-306.342772	-306.341828	-306.379643	20.727	
O	-0.5365614031	 0.4784631812	 0.4315686877	-0.234069
C	 0.243333021	 0.9501361837	-0.3543148101	 0.158068
C	 1.3341779757	 1.9421455981	 0.0079758032	-0.304088
C	 1.3103858619	 3.1553302262	-0.8976479395	 0.082056
C	 2.541273347	 3.7936308073	-1.379210909	-0.173558
O	 1.7705094689	 2.9504333125	-2.2364480689	-0.230174
H	 0.2165596526	 0.6785012159	-1.4326499086	 0.09721
H	 1.2179105829	 2.2264813225	 1.0581646415	 0.12711
H	 2.2997272934	 1.4338417391	-0.1152900651	 0.128385
H	 0.4123578591	 3.7709467904	-0.8292007889	 0.107838
H	 2.5376632123	 4.8511810558	-1.6374276904	 0.122909
H	 3.5058442081	 3.3924054372	-1.070537362	 0.118313
69.182	80.3113	216.7931	354.9887	451.526	495.1361	780.2145	808.8684	885.9683	950.9865	976.8864	1055.3474	1110.0167	1133.0693	1160.7094	1172.5388	1239.1446	1282.8665	1301.2611	1423.4347	1434.2637	1445.6609	1528.3145	1835.4693	2896.123	3029.467	3085.8598	3095.7694	3109.5187	3174.5269
O=CCC1CO1	O=CC[C@H]1CO1	
InChI=1S/C4H6O2/c5-2-1-4-3-6-4/h2,4H,1,3H2	InChI=1S/C4H6O2/c5-2-1-4-3-6-4/h2,4H,1,3H2/t4-/m0/s1
