13
gdb 3303	5.87758	2.28841	1.99299	3.8892	57.43	-0.2588	0.0065	0.2653	651.1199	0.103318	-303.459637	-303.453774	-303.45283	-303.48928	21.779	
N	-0.0248843629	-1.2001224695	-0.1503178273	-0.325959
C	-0.0110651987	-0.0466327821	-0.0716026923	 0.295228
C	 0.0119072523	 1.4060598722	 0.0561702092	-0.105658
C	-0.2504991192	 2.0192857606	 1.4675291273	-0.266325
C	 1.1567778661	 2.5985169581	 1.3681730981	-0.004636
C	 2.1554147541	 1.5467298859	 1.1129963313	-0.241177
N	 1.3791121954	 2.0522834597	-0.0395327069	-0.132281
H	-0.6307957529	 1.8392219664	-0.7127485832	 0.137616
H	-1.042642992	 2.7678416084	 1.4381851726	 0.129463
H	-0.438908072	 1.3260089669	 2.2902178624	 0.129704
H	 1.4305910803	 3.6168748527	 1.6207233176	 0.109086
H	 3.1972129274	 1.8449728482	 1.0601736132	 0.135559
H	 1.9903552622	 0.5293483523	 1.460171588	 0.139381
138.3335	180.9714	309.1069	426.3415	522.793	574.8163	720.7066	762.9034	779.3813	819.0602	938.0679	950.5413	997.7563	1048.8006	1057.8953	1086.0034	1114.5838	1133.8656	1165.4368	1227.0593	1246.3287	1277.5734	1348.6216	1368.7659	1488.1324	1504.773	2351.4327	3077.0599	3092.8824	3115.0548	3138.6263	3177.1936	3210.3547
N#CC1CC2CN12	N#C[C@H]1C[C@H]2CN12	
InChI=1S/C5H6N2/c6-2-4-1-5-3-7(4)5/h4-5H,1,3H2	InChI=1S/C5H6N2/c6-2-4-1-5-3-7(4)5/h4-5H,1,3H2/t4-,5+,7?/m1/s1
