19
gdb 1809	3.69975	2.05693	1.94346	1.2668	66.98	-0.2355	0.0665	0.302	806.1359	0.16913	-310.909285	-310.900583	-310.899639	-310.941881	31.978	
C	-0.2457432163	 1.4317986986	 0.1226533364	-0.390103
C	 0.0907379345	-0.0581167108	-0.0363907023	 0.006883
C	 0.9405266951	-0.3129939812	-1.2898913824	-0.390104
C	 0.7780372005	-0.597781198	 1.2074045285	 0.468981
O	 2.0004086467	 0.0721639342	 1.406323035	-0.482229
C	-0.0410593768	-1.0108059314	 2.3998490372	-0.340533
C	 0.6711266024	-2.0584106671	 1.5517674668	-0.340499
H	 0.6673009228	 2.0186578333	 0.2562955935	 0.130918
H	-0.7694938588	 1.8090063292	-0.7614954943	 0.103305
H	-0.8850501305	 1.6024574413	 0.9948250119	 0.107845
H	-0.8499780089	-0.6152597544	-0.1382295604	 0.066874
H	 1.9012583892	 0.2037326411	-1.2130635968	 0.130923
H	 1.1433152094	-1.380872839	-1.4203952804	 0.107851
H	 0.4280072519	 0.0476484083	-2.1874326624	 0.103304
H	 2.4232384328	-0.2785040008	 2.1955683619	 0.279511
H	 0.3615723177	-0.8057026169	 3.3874272191	 0.1041
H	-1.1229723811	-0.9476734344	 2.3434883483	 0.114435
H	 0.0727152994	-2.7065100003	 0.9196533267	 0.11443
H	 1.5430654601	-2.5435828716	 1.9805028337	 0.104109
74.8422	106.1897	205.6349	218.4203	227.9952	268.8887	296.2614	358.6288	394.9555	504.3535	541.3139	692.5489	764.6385	856.6217	877.7554	930.8335	936.8222	943.6601	976.6953	979.2482	1045.0891	1062.5071	1067.9547	1141.0766	1179.2463	1184.7356	1197.6931	1285.4849	1343.1902	1356.4756	1395.4662	1415.7369	1438.3557	1460.9017	1486.1065	1493.1316	1499.1642	1501.046	1518.2105	3017.4964	3034.2603	3038.402	3099.9569	3102.8359	3115.962	3118.2428	3120.5595	3122.6975	3196.8251	3211.8532	3832.6359
CC(C)C1(O)CC1	CC(C)C1(O)CC1	
InChI=1S/C6H12O/c1-5(2)6(7)3-4-6/h5,7H,3-4H2,1-2H3	InChI=1S/C6H12O/c1-5(2)6(7)3-4-6/h5,7H,3-4H2,1-2H3
