16
gdb 2032	7.17717	1.6817	1.59693	1.2634	60.86	-0.2419	0.0757	0.3175	799.6855	0.13718	-325.731549	-325.724788	-325.723843	-325.76209	25.948	
O	 0.6579638068	 0.7542726607	-0.7268829646	-0.433401
C	-0.0310551473	-0.1943103355	 0.0436771009	 0.177095
C	 0.1034041104	-0.1716364673	 1.5975348107	-0.354688
C	-1.3893887013	-0.514014311	 1.6575730918	 0.37492
C	-1.9991702846	-1.6620320468	 2.3615776823	-0.302715
N	-2.3405158603	-0.270142122	 2.7333757125	-0.366169
C	-1.5775505357	-0.0937181007	 0.1972328939	-0.333463
H	 0.3880837608	 1.6309811783	-0.4331532258	 0.276797
H	 0.2623032912	-1.1681760183	-0.3568173474	 0.098025
H	 0.8198902202	-0.8513959793	 2.0658337173	 0.10511
H	 0.2978875751	 0.8490908812	 1.9509812897	 0.094765
H	-2.8103609542	-2.2195869396	 1.9000416188	 0.118844
H	-1.3737697909	-2.2451008081	 3.0337308444	 0.110697
H	-1.8463211628	-0.0092171607	 3.5840755713	 0.228323
H	-1.9155067079	 0.9471655327	 0.1255303123	 0.098901
H	-2.2017792193	-0.7141532138	-0.4494877281	 0.106959
84.1408	250.6125	302.2963	320.2288	342.7773	438.8229	450.1089	514.9778	718.1587	809.0663	835.5283	877.9752	907.8565	955.3144	970.0267	999.6323	1006.5103	1060.6379	1078.2292	1115.1091	1131.202	1178.0469	1205.4656	1246.6495	1259.1655	1267.6076	1298.2101	1333.8046	1415.3705	1438.4629	1465.0561	1492.4141	1517.1267	3026.1702	3039.1279	3078.1358	3099.0012	3099.936	3111.1327	3183.8324	3486.5989	3804.6932
OC1CC2(CN2)C1	O[C@H]1C[C@]2(CN2)C1	
InChI=1S/C5H9NO/c7-4-1-5(2-4)3-6-5/h4,6-7H,1-3H2	InChI=1S/C5H9NO/c7-4-1-5(2-4)3-6-5/h4,6-7H,1-3H2/t4-,5+
