12
gdb 1834	5.90514	2.25692	1.6663	1.8411	51.44	-0.2595	-0.0191	0.2404	686.2081	0.091851	-360.602876	-360.596931	-360.595987	-360.633206	21.343	
O	-0.013352629	-0.0382543474	 0.0034534656	-0.339044
C	-0.0444194384	 1.1647923384	 0.0102250361	 0.415875
C	-1.2727920738	 2.0751712246	 0.0319094138	-0.341527
C	-0.7199662436	 3.5103111514	 0.0316811342	-0.341527
C	 0.8017117845	 3.3613461786	 0.0101386507	 0.415875
O	 1.6318383138	 4.232652497	 0.0032856289	-0.339044
N	 1.0708220504	 1.9964363342	-0.0006931442	-0.343469
H	-1.8926474257	 1.8462376076	-0.8386770382	 0.149693
H	-1.8683127279	 1.8371917083	 0.9169416151	 0.149696
H	-1.0259759047	 4.0955814874	-0.8391667633	 0.149697
H	-1.0020161215	 4.0866561015	 0.9164569953	 0.149691
H	 2.013574136	 1.6332813984	-0.0155485641	 0.274083
75.2145	134.9542	389.3569	538.1638	541.9492	572.29	628.9317	633.43	690.4336	827.9054	843.5594	903.252	1010.7902	1025.0329	1159.3979	1172.5028	1242.2695	1253.2082	1307.6534	1346.0422	1360.0276	1457.121	1476.3318	1837.4543	1880.3859	3074.2284	3080.8553	3109.3058	3125.3982	3620.6697
O=C1CCC(=O)N1	O=C1CCC(=O)N1	
InChI=1S/C4H5NO2/c6-3-1-2-4(7)5-3/h1-2H2,(H,5,6,7)	InChI=1S/C4H5NO2/c6-3-1-2-4(7)5-3/h1-2H2,(H,5,6,7)
