12
gdb 389	8.22625	2.23737	1.90488	1.2875	43.58	-0.2662	-0.0476	0.2186	618.5337	0.094809	-343.5036	-343.497024	-343.49608	-343.533909	22.686	
O	 0.1624483391	 1.3832069713	-0.005594983	-0.41571
C	 0.0918633015	-0.0183724883	 0.0925866355	-0.063435
C	-1.3787511933	-0.4798385795	 0.0112672394	 0.030557
O	-1.9593255877	 0.0420611922	-1.1584438186	-0.441208
C	-1.4792701858	-1.9862830605	 0.031343273	 0.132256
O	-1.9266913128	-2.6026401643	-0.906573871	-0.25671
H	-0.3583696843	 1.6181405047	-0.7843401808	 0.296852
H	 0.6621613649	-0.5131700406	-0.7107042432	 0.095911
H	 0.5343998722	-0.3029474281	 1.0532709338	 0.111073
H	-1.9045872639	-0.0847625621	 0.8959087668	 0.107031
H	-2.1857876567	-0.7271798019	-1.7054787382	 0.298759
H	-1.1050387931	-2.4980903528	 0.9409477662	 0.104623
95.9717	142.9329	253.3734	310.4756	384.5981	426.7202	486.0124	517.7149	751.1066	838.9338	906.8314	966.424	1078.4098	1107.91	1156.8028	1228.4113	1245.7716	1322.7903	1385.2983	1399.2169	1432.7635	1434.1244	1499.5382	1809.6089	2933.6265	2969.4079	2988.8301	3074.7116	3689.2922	3778.6342
OCC(O)C=O	OC[C@@H](O)C=O	
InChI=1S/C3H6O3/c4-1-3(6)2-5/h1,3,5-6H,2H2	InChI=1S/C3H6O3/c4-1-3(6)2-5/h1,3,5-6H,2H2/t3-/m0/s1
