12
gdb 3285	5.97874	2.62645	2.14791	4.9712	49.65	-0.243	-0.0004	0.2426	597.2469	0.091642	-360.49554	-360.4901	-360.489155	-360.524794	20.221	
O	-0.097502654	 0.1411123936	 0.3595209451	-0.315749
C	 0.0134333718	 1.2742274536	 0.0306340452	 0.489657
O	-0.9954737619	 2.1466522867	-0.3471656881	-0.259367
C	-0.0523758188	 3.2210163441	-0.6364879261	 0.103401
C	 0.228657225	 4.137332767	 0.5688204974	-0.188218
N	 1.2182610508	 3.1508884633	 1.0973139397	-0.316075
C	 1.113577659	 2.3366526225	-0.1449856312	-0.206645
H	-0.2046166627	 3.6275326178	-1.6336523707	 0.108018
H	 0.6709408943	 5.0917741383	 0.2608598653	 0.111857
H	-0.6179160336	 4.3264182318	 1.2348617017	 0.129833
H	 2.1422519321	 3.5383957947	 1.239886784	 0.23493
H	 2.0256641578	 2.0772382664	-0.6807192023	 0.108358
143.5386	237.5006	373.2498	456.0321	647.2899	682.0779	776.2057	814.6518	834.7487	877.749	935.5121	984.6508	1005.8977	1020.7272	1067.1687	1105.9382	1142.1215	1193.7051	1220.1031	1245.9	1323.6206	1340.6072	1383.6327	1494.7068	1949.4189	3035.2398	3096.1609	3128.1176	3147.0784	3562.8134
O=C1OC2CNC12	O=C1O[C@H]2CN[C@@H]12	
InChI=1S/C4H5NO2/c6-4-3-2(7-4)1-5-3/h2-3,5H,1H2	InChI=1S/C4H5NO2/c6-4-3-2(7-4)1-5-3/h2-3,5H,1H2/t2-,3+/m0/s1
