15
gdb 2485	4.97197	2.70748	2.50032	2.0761	55.65	-0.2442	0.0826	0.3268	603.0496	0.1273	-345.629039	-345.623516	-345.622572	-345.658078	22.389	
O	 0.0560797174	 1.3602567732	-0.0458918886	-0.445408
C	 0.0316155581	-0.0482952574	-0.0339308015	 0.175338
C	 0.5159647584	-0.6811555057	 1.3175694801	-0.265072
C	-0.8364124674	-1.2803433513	 1.7437580341	 0.083408
C	-1.2951789588	-2.0470815072	 0.4827204415	-0.23372
C	-1.4158461052	-0.5870298326	 0.0102154641	 0.038221
O	-1.7802184632	-0.2098736076	 1.3829854212	-0.316755
H	-0.546491843	 1.6320152676	 0.6596450625	 0.281466
H	 0.5998043753	-0.381483426	-0.905437826	 0.085383
H	 1.2984482557	-1.4351399618	 1.1982596673	 0.102551
H	 0.8720354939	 0.0938959609	 1.999588196	 0.110436
H	-0.9648596747	-1.6547667149	 2.758771518	 0.084273
H	-0.5887840081	-2.7144485531	-0.0179374768	 0.098227
H	-2.2705833973	-2.5170283448	 0.6115520446	 0.115674
H	-2.114434351	-0.2383816192	-0.7499178565	 0.08598
175.5345	345.8949	441.6859	462.3496	501.5785	592.5082	724.8125	819.9082	834.3801	846.6607	859.7961	889.3139	941.8689	962.1369	979.585	1032.8346	1040.4894	1085.2051	1121.5509	1139.0583	1204.4977	1220.1619	1229.4161	1259.5934	1290.7805	1296.6274	1317.5614	1337.5608	1441.5783	1477.6295	1495.6198	3065.4099	3068.7203	3090.7804	3122.0493	3128.2151	3131.9686	3144.7489	3758.3071
OC1CC2CC1O2	O[C@H]1C[C@@H]2C[C@H]1O2	
InChI=1S/C5H8O2/c6-4-1-3-2-5(4)7-3/h3-6H,1-2H2	InChI=1S/C5H8O2/c6-4-1-3-2-5(4)7-3/h3-6H,1-2H2/t3-,4+,5-/m1/s1
