15
gdb 3164	4.00108	2.74406	1.96191	2.3565	57.47	-0.227	0.0623	0.2893	683.9359	0.124141	-345.60867	-345.601807	-345.600863	-345.639452	25.45	
O	 0.0162923646	 1.2880437272	-0.3260838605	-0.422937
C	 0.0537920628	-0.068320298	 0.0405983192	-0.024062
C	-0.0006316626	-0.4288135412	 1.5474238471	-0.104585
O	-1.1957826281	-1.2185971987	 1.3452973204	-0.30583
C	-1.3023749088	-0.756675395	-0.0029011611	 0.458411
C	-2.5713168015	-0.2229799948	-0.577675345	-0.321409
C	-1.979420701	-1.5363094174	-1.075587826	-0.344435
H	 0.919451707	 1.6072665153	-0.4125478662	 0.289348
H	 0.835831298	-0.6119807908	-0.5049182331	 0.079996
H	 0.8193439534	-1.0286324443	 1.9564590143	 0.100674
H	-0.1850831323	 0.4461395857	 2.1828459076	 0.105333
H	-3.4554078372	-0.2807344352	 0.0478522574	 0.122652
H	-2.5069782764	 0.6541168239	-1.2119734617	 0.128697
H	-1.5256534792	-1.5659762929	-2.0613690691	 0.114215
H	-2.4762294588	-2.4527006937	-0.7752358632	 0.123933
82.1509	201.7182	233.6395	248.1843	374.2982	407.4796	541.5817	572.6568	756.7796	767.5839	866.7271	871.4335	906.8472	979.7203	983.0211	1011.5019	1046.3741	1064.711	1072.7838	1146.1466	1173.1011	1187.6147	1216.0434	1222.3378	1290.4051	1334.781	1369.8153	1446.8884	1452.777	1492.5459	1518.9281	3015.7941	3021.4699	3079.7178	3125.9028	3136.3468	3212.1456	3230.8631	3828.6071
OC1COC11CC1	O[C@H]1COC21CC2	
InChI=1S/C5H8O2/c6-4-3-7-5(4)1-2-5/h4,6H,1-3H2	InChI=1S/C5H8O2/c6-4-3-7-5(4)1-2-5/h4,6H,1-3H2/t4-/m0/s1
