19
gdb 4011	3.26452	1.05608	0.8713	0.9709	71.2	-0.2417	0.0087	0.2504	1339.6576	0.163301	-402.158561	-402.148711	-402.147767	-402.193784	34.693	
C	 1.1524212659	 0.5138897065	-1.0694552606	-0.374901
C	 0.0642618517	 0.0232197334	-0.0953318548	-0.265394
C	 0.6594646748	-0.6296446376	 1.1293174781	 0.349257
C	 0.7449530417	-2.1323804948	 1.2040874401	-0.287053
C	-0.6096163996	-2.7903073732	 1.5225702484	-0.058835
O	-0.5492774975	-4.2045128814	 1.4657547028	-0.414994
N	 1.1205076937	 0.0065052629	 2.139304582	-0.174887
O	 0.9903707713	 1.4001714629	 1.9897950343	-0.4001
H	 1.7873472916	-0.3121532875	-1.4055620632	 0.117485
H	 0.6979520257	 0.9696398787	-1.9541787718	 0.115477
H	 1.787470755	 1.2585604622	-0.5844785265	 0.140804
H	-0.5491087013	 0.8733383142	 0.2163038807	 0.128618
H	-0.5897623645	-0.6915097191	-0.6051609719	 0.100755
H	 1.1031141295	-2.5353102431	 0.2485712351	 0.112822
H	 1.4686335357	-2.4066802071	 1.9788225696	 0.10658
H	-0.9635945349	-2.4356541358	 2.5022763967	 0.100748
H	-1.3604758055	-2.4979037522	 0.7810308939	 0.114895
H	 0.0463463379	-4.5015989707	 2.1611344959	 0.283323
H	 1.3625071787	 1.7250959515	 2.8160159911	 0.305398
61.6776	76.9709	97.7092	138.4186	218.4344	237.4996	304.2344	323.3448	341.8551	370.4635	387.266	426.1859	609.0465	704.9318	774.043	798.0957	811.9789	965.2047	987.6864	1013.4611	1033.3531	1070.9419	1090.8267	1103.0492	1164.0498	1246.4859	1286.0136	1298.5378	1314.5878	1351.9095	1390.3776	1402.8702	1409.0921	1417.8111	1475.1482	1484.1573	1497.879	1508.9528	1512.4918	1724.3882	2993.3601	3031.2683	3041.3719	3048.2702	3067.268	3090.9539	3094.1647	3109.9264	3132.8144	3815.7042	3824.4275
CCC(CCO)=NO	CCC(=NO)CCO	
InChI=1S/C5H11NO2/c1-2-5(6-8)3-4-7/h7-8H,2-4H2,1H3	InChI=1S/C5H11NO2/c1-2-5(6-8)3-4-7/h7-8H,2-4H2,1H3
