12
gdb 3770	4.11214	3.44393	1.8967	4.5328	51.95	-0.2333	0.0149	0.2482	626.6552	0.091046	-356.687774	-356.68132	-356.680376	-356.718237	22.537	
C	-0.0463790543	 1.427815834	-0.0106301007	-0.330049
N	-0.0273365786	-0.0175249121	 0.0442120459	 0.012531
N	-0.1856753946	-0.7723189052	-1.0808323013	-0.158246
N	-0.1241695349	-2.0185611656	-0.7237491108	-0.179462
C	 0.0726687711	-2.1028415379	 0.6217483152	-0.186366
C	 0.135112212	-0.8195433862	 1.1167696715	 0.365146
O	 0.3083314547	-0.2641494492	 2.3335237203	-0.425437
H	 0.9016599382	 1.8410294622	 0.3443704793	 0.149591
H	-0.2006157956	 1.7038023299	-1.0535026401	 0.168767
H	-0.8595844022	 1.8275624923	 0.6012922264	 0.149592
H	 0.1549733464	-3.045864126	 1.1370283798	 0.115464
H	 0.4086953576	-0.9644830461	 2.9861298444	 0.318468
84.6116	198.5903	261.1114	277.2707	322.0455	460.2078	677.234	686.2373	714.7688	757.3475	784.5568	976.4188	1019.0975	1118.9663	1154.4828	1168.3632	1266.7186	1288.4067	1327.4083	1365.4447	1443.6547	1482.2573	1506.1214	1556.3328	1626.9388	3051.8674	3116.6488	3166.1269	3265.8736	3839.4091
CN1N=NC=C1O	Cn1nncc1O	
InChI=1S/C3H5N3O/c1-6-3(7)2-4-5-6/h2,7H,1H3	InChI=1S/C3H5N3O/c1-6-3(7)2-4-5-6/h2,7H,1H3
