17
gdb 1474	6.7384	1.33502	1.22344	4.1783	65.7	-0.2359	0.023	0.2589	992.8362	0.147412	-305.898313	-305.88997	-305.889026	-305.931055	29.115	
C	 0.0309730128	 1.5400377793	 0.0411388147	-0.397825
C	-0.0343266814	 0.0144621539	 0.0013690518	-0.107232
N	-1.4038394904	-0.5041874981	-0.0319288901	-0.060291
C	-2.1164924178	-0.1678774582	-1.259865117	-0.338528
C	-1.4116048956	-1.9395932784	 0.2142287305	-0.276218
C	-2.765146455	-2.4539535679	 0.4588251471	 0.274625
N	-3.8251203175	-2.8737915652	 0.644104845	-0.308971
H	 1.0646585929	 1.8605644067	 0.201478426	 0.120437
H	-0.3100206637	 1.9952503289	-0.892529673	 0.124812
H	-0.5838350314	 1.9279642132	 0.858321978	 0.13213
H	 0.5601684222	-0.3619169481	-0.8549074024	 0.080957
H	 0.4399217305	-0.380289931	 0.9073957195	 0.103711
H	-1.6183879614	-0.5647016696	-2.1650370406	 0.095343
H	-3.1299631128	-0.5750479843	-1.2195406428	 0.148652
H	-2.1985485903	 0.9156252509	-1.3606635263	 0.131534
H	-0.9723326801	-2.5298230375	-0.6149065776	 0.125593
H	-0.8083031607	-2.1514164746	 1.103944697	 0.151271
65.6636	104.3738	148.8528	221.523	259.8309	299.8734	363.9268	382.1128	399.1786	430.4125	577.3272	810.1957	827.5202	921.1527	975.8779	1012.2362	1065.8571	1083.4443	1122.811	1165.3771	1204.8044	1253.0232	1296.4069	1337.1469	1374.0822	1401.5457	1425.5808	1461.7068	1472.221	1487.6332	1492.3247	1502.3524	1508.59	1516.8656	2365.7025	2903.7204	2910.51	2931.6231	3046.243	3047.7061	3064.2836	3090.686	3115.6616	3122.8729	3135.6284
CCN(C)CC#N	CCN(C)CC#N	
InChI=1S/C5H10N2/c1-3-7(2)5-4-6/h3,5H2,1-2H3	InChI=1S/C5H10N2/c1-3-7(2)5-4-6/h3,5H2,1-2H3
