10
gdb 142	15.97776	3.43771	3.25625	4.1966	43.5	-0.2931	0.0289	0.322	407.3682	0.080403	-210.071468	-210.066701	-210.065757	-210.098937	16.544	
N	 0.0045856436	-1.140248911	-0.0129089632	-0.330297
C	 0.0034632695	 0.0167168021	 0.0035328763	 0.273373
C	 0.004691368	 1.4526385697	 0.0249553685	-0.137849
C	 0.4966734285	 2.1823477846	 1.2649258373	-0.248984
C	 1.3286572955	 2.2004032595	 0.0204066019	-0.248976
H	-0.8182333936	 1.9032920672	-0.5186815433	 0.135622
H	-0.0449529607	 3.0780793099	 1.5450421335	 0.133467
H	 0.8305372055	 1.5725331749	 2.0954320607	 0.145084
H	 2.2318146028	 1.6029755367	-0.0006267607	 0.145084
H	 1.3683789311	 3.1087578365	-0.5690615511	 0.133477
215.7946	219.6017	534.4661	558.8798	754.9982	811.5006	827.4371	902.8445	964.4639	1072.2362	1091.3924	1115.4931	1137.9329	1201.75	1218.8648	1379.7574	1470.031	1499.6585	2354.4881	3149.3908	3152.7371	3175.0242	3234.9288	3249.2602
N#CC1CC1	N#CC1CC1	
InChI=1S/C4H5N/c5-3-4-1-2-4/h4H,1-2H2	InChI=1S/C4H5N/c5-3-4-1-2-4/h4H,1-2H2
