15
gdb 2604	3.50837	2.55708	1.76821	3.1603	58.28	-0.2577	-0.029	0.2286	733.868	0.124281	-345.651111	-345.643927	-345.642983	-345.682205	26.217	
O	 0.155105591	 1.2981983667	-0.2816984328	-0.423466
C	 0.0495812005	-0.0533878558	 0.112054596	-0.145751
C	-1.3814015361	-0.5627240233	 0.0821549997	 0.241122
C	-1.977400111	-1.0898972942	-1.2218236765	-0.291002
C	-1.6517980973	-2.0471336296	-0.1280500004	-0.311285
C	-2.3254275301	 0.1640538253	 0.9567788012	 0.117266
O	-2.0392649292	 1.1536547746	 1.5950354283	-0.288163
H	-0.3400529858	 1.7998747558	 0.3787066292	 0.296954
H	 0.6616932025	-0.6363542455	-0.5848151575	 0.101856
H	 0.4606097251	-0.2111167256	 1.1215422915	 0.098471
H	-3.0208414053	-0.8748288907	-1.426691759	 0.127552
H	-1.3285023371	-1.0359770957	-2.0883862151	 0.140248
H	-0.7769161471	-2.6801390126	-0.2294408098	 0.132355
H	-2.467664769	-2.4981228534	 0.4273915759	 0.125912
H	-3.3572565713	-0.2548277762	 0.9913332091	 0.077929
113.5131	144.9053	210.8011	279.3261	317.0288	337.8469	486.9022	537.9649	546.955	780.1356	790.1733	854.1229	924.2844	935.2303	967.2834	1035.2087	1049.6522	1064.2389	1087.271	1091.8439	1193.6118	1209.1892	1308.0446	1358.0118	1386.6041	1433.6906	1446.5628	1467.5414	1491.7744	1503.7781	1790.9293	2871.2276	2983.3353	3066.0489	3133.0658	3138.7844	3214.1478	3229.9223	3772.0349
OCC1(CC1)C=O	OCC1(CC1)C=O	
InChI=1S/C5H8O2/c6-3-5(4-7)1-2-5/h3,7H,1-2,4H2	InChI=1S/C5H8O2/c6-3-5(4-7)1-2-5/h3,7H,1-2,4H2
