11
gdb 3892	7.44142	1.97006	1.72284	3.5811	48.06	-0.2633	-0.0685	0.1949	692.8011	0.079017	-372.686714	-372.680536	-372.679592	-372.717385	21.101	
N	 0.0075965676	 1.4786473745	 0.048593958	-0.502549
C	 0.0027206452	 0.0147603371	 0.0194417232	-0.255735
C	 0.8263035613	-0.5155045424	 1.1481539786	 0.432706
N	 2.0018365159	-1.0600079235	 1.0210469441	-0.142878
O	 2.3812800298	-1.3693286543	 2.2803356611	-0.141089
N	 1.3644209429	-0.9809447374	 3.160595797	 0.046814
N	 0.4430350035	-0.4713948858	 2.4805348591	-0.183979
H	 0.9098008687	 1.8291275664	-0.2582700705	 0.240334
H	-0.6850126552	 1.8368896042	-0.6002876358	 0.240818
H	-1.027573183	-0.3249476018	 0.1660067294	 0.142389
H	 0.3752535732	-0.440055617	-0.9100347542	 0.123169
58.8154	166.6161	234.315	336.7567	435.2518	664.8625	666.4968	683.4585	782.2003	848.4496	950.7173	979.9058	1055.0631	1068.3332	1099.1132	1180.7249	1292.8102	1342.192	1419.1332	1490.4337	1498.0905	1597.0449	1662.5214	3000.0241	3082.8699	3502.1819	3586.1517
NCC1=NON=N1	NCc1nonn1	
InChI=1S/C2H4N4O/c3-1-2-4-6-7-5-2/h1,3H2	InChI=1S/C2H4N4O/c3-1-2-4-6-7-5-2/h1,3H2
