12
gdb 214	5.71227	5.71175	2.85601	0.	57.28	-0.2475	0.0029	0.2503	456.6788	0.100175	-232.164586	-232.160188	-232.159244	-232.192047	17.214	
C	-0.0263621144	 1.3835086344	 0.0103870267	-0.094019
C	 1.1708019283	 2.0965810056	 0.0023045827	-0.093863
C	 2.3868915311	 1.4163752988	-0.0131380362	-0.093839
C	 2.4057296503	 0.0230978461	-0.0205116117	-0.09402
C	 1.2085609122	-0.6899726756	-0.0124063764	-0.093863
C	-0.0075247651	-0.0097718365	 0.0030452239	-0.093841
H	-0.9733414726	 1.9132329519	 0.0224498095	 0.093897
H	 1.1560436477	 3.1816075197	 0.0080224004	 0.093909
H	 3.3191394577	 1.9717268815	-0.0194567412	 0.093916
H	 3.3527113702	-0.5066219591	-0.0325112361	 0.093898
H	 1.223326423	-1.7750001478	-0.0181456652	 0.093909
H	-0.9397757183	-0.565118069	 0.0093265237	 0.093916
412.5667	413.0404	616.9983	617.2375	699.9485	722.1117	872.3705	872.6052	960.7668	961.1854	1009.2254	1014.6023	1016.5577	1062.0534	1062.5884	1173.8039	1198.1347	1198.3793	1339.2327	1362.2185	1511.6986	1512.226	1634.6709	1635.1643	3164.0651	3173.5699	3174.0247	3189.7281	3190.2356	3200.8167
C1=CC=CC=C1	c1ccccc1	
InChI=1S/C6H6/c1-2-4-6-5-3-1/h1-6H	InChI=1S/C6H6/c1-2-4-6-5-3-1/h1-6H
