15
gdb 4836	4.82729	1.40539	1.1599	0.767	63.65	-0.2159	0.0257	0.2417	1019.7811	0.119678	-399.845615	-399.838185	-399.83724	-399.877681	27.118	
C	 0.1877057128	 1.5783039478	-0.0340820831	-0.373903
C	-0.054508503	 0.0636934154	 0.0886399281	-0.296999
C	 0.5694922159	-0.545474498	 1.2908464162	 0.336703
C	 0.1303319436	-1.1763572164	 2.4018555076	-0.203083
N	 1.2097586324	-1.5360871188	 3.2165310253	-0.381674
C	 2.2268761385	-1.1010247913	 2.5510872524	 0.467664
O	 3.5193763212	-1.1736928675	 2.8643991871	-0.399612
O	 1.9598065497	-0.4934180107	 1.3873120251	-0.204053
H	 1.2578965112	 1.7972302209	-0.0831183273	 0.134313
H	-0.2824362406	 1.9713231658	-0.9403179357	 0.115572
H	-0.2264451957	 2.1106207616	 0.8273239726	 0.12355
H	-1.1286112672	-0.1440568758	 0.1378494577	 0.119107
H	 0.3180516386	-0.4371504945	-0.8147673766	 0.119463
H	-0.8859338399	-1.4045597389	 2.6818824588	 0.121086
H	 3.5703336026	-1.6300267996	 3.7139926419	 0.321867
71.9493	132.3512	196.4343	270.6917	318.3494	408.0822	442.3149	480.295	613.4603	673.9166	746.0263	754.45	787.4548	847.3679	957.1664	986.3701	1009.3549	1076.027	1093.9101	1137.0472	1224.3236	1229.4098	1257.4458	1307.4414	1361.484	1407.6409	1472.581	1492.8035	1498.4554	1507.063	1658.1946	1663.0406	3020.8583	3042.9224	3076.331	3115.2281	3122.6411	3263.0144	3808.5037
CCC1=CN=C(O)O1	CCc1cnc(O)o1	
InChI=1S/C5H7NO2/c1-2-4-3-6-5(7)8-4/h3H,2H2,1H3,(H,6,7)	InChI=1S/C5H7NO2/c1-2-4-3-6-5(7)8-4/h3H,2H2,1H3,(H,6,7)
