13
gdb 2593	3.18556	2.78007	1.76285	4.8568	54.59	-0.257	0.0066	0.2636	717.8868	0.101599	-340.610046	-340.602891	-340.601946	-340.641278	25.182	
N	 0.2700584554	 1.4137388756	-0.1522050636	-0.4993
C	-0.1249863542	 0.0377088575	 0.1160854393	-0.235543
C	 0.7140793277	-0.5182630505	 1.2498994299	 0.261255
C	 1.1482733951	-1.9289752186	 1.2628196923	-0.210399
O	 2.053072029	-0.8926374739	 0.8932567735	-0.250998
C	 0.5988618372	 0.1715865157	 2.5255788872	 0.283395
N	 0.4782907364	 0.6930150508	 3.5493805552	-0.330075
H	 1.1988487606	 1.4357291378	-0.5612036206	 0.244095
H	-0.3629739444	 1.8447922293	-0.8161592081	 0.239071
H	-1.1778545356	 0.0286157237	 0.4202038594	 0.128108
H	-0.0189579785	-0.6552586024	-0.7346334727	 0.099216
H	 1.3522927003	-2.4134852685	 2.2148755504	 0.142257
H	 0.8215787608	-2.5817953262	 0.4551003878	 0.128918
90.8911	159.7851	204.3101	260.1473	277.2257	370.2094	444.4744	576.3171	599.5617	685.8858	818.6876	850.7193	904.9888	962.3887	987.1615	1088.5794	1129.8709	1166.2093	1187.0405	1252.2324	1314.0685	1378.4109	1432.0819	1488.3854	1519.8437	1659.5145	2363.429	2968.0818	3067.5739	3094.3287	3190.549	3509.739	3593.9476
NCC1(CO1)C#N	NC[C@]1(CO1)C#N	
InChI=1S/C4H6N2O/c5-1-4(2-6)3-7-4/h1,3,5H2	InChI=1S/C4H6N2O/c5-1-4(2-6)3-7-4/h1,3,5H2/t4-/m1/s1
