15
gdb 368	5.62304	2.78995	1.93208	0.8775	55.68	-0.2427	0.0334	0.2761	667.2341	0.129176	-287.697316	-287.689416	-287.688472	-287.729866	25.912	
C	-0.0025060643	 1.3854819322	 0.0279662551	-0.223756
O	 0.0552466377	-0.0390331428	-0.0084405765	-0.238995
C	 0.6434644322	-0.584504784	-1.0974149534	 0.411451
C	 0.6409803073	-2.0902255988	-1.0133147697	-0.488593
N	 1.107941564	 0.1478607587	-2.0212330963	-0.293671
C	 1.7248684988	-0.4872885878	-3.1716973286	-0.321236
H	 1.0019024979	 1.8175148487	-0.0007680482	 0.131409
H	-0.5651525317	 1.7751433251	-0.8251668854	 0.13145
H	-0.502197544	 1.6366648835	 0.9649470961	 0.120756
H	 0.1227569711	-2.5194775029	-1.876862914	 0.141747
H	 1.66588515	-2.4752778966	-1.0289044957	 0.143289
H	 0.1502476791	-2.4239848077	-0.0992386707	 0.141167
H	 2.501878531	-1.2167913349	-2.8998326794	 0.108163
H	 0.9882173709	-1.0131685276	-3.7965525597	 0.113866
H	 2.1936173998	 0.2784632249	-3.7955875536	 0.122953
35.3792	92.4672	168.7374	173.501	238.3381	292.4473	310.5884	476.25	582.5665	629.2483	801.4975	971.8742	1051.7621	1076.2786	1094.7024	1116.8937	1160.759	1181.8062	1224.2758	1312.5866	1396.9223	1444.7516	1466.4517	1474.6187	1481.7821	1486.4605	1489.3108	1500.8022	1512.1216	1746.4943	2983.5562	3031.0723	3042.3166	3045.6397	3094.5293	3101.9477	3112.5383	3143.9868	3154.3207
COC(C)=NC	COC(=NC)C	
InChI=1S/C4H9NO/c1-4(5-2)6-3/h1-3H3	InChI=1S/C4H9NO/c1-4(5-2)6-3/h1-3H3
