16
gdb 1802	3.85514	2.60329	1.78925	3.4827	61.08	-0.2424	0.0348	0.2772	734.9678	0.136146	-325.808092	-325.80023	-325.799286	-325.840103	28.607	
C	 0.0187795103	 1.4665369052	-0.1026046898	-0.503971
C	 0.0868159812	-0.0481416492	-0.1063835678	 0.250003
C	 1.4543611942	-0.7116688242	-0.1644795356	-0.278935
C	 0.6729198674	-0.7491558288	 1.1096448155	-0.278158
C	-1.0000040919	-0.8346182445	-0.7955941533	 0.366594
N	-1.9972579008	-0.1045972652	-1.3767219782	-0.546927
O	-1.0006424375	-2.054241498	-0.8266261498	-0.383354
H	 0.8700799782	 1.8858972829	 0.4409326229	 0.12356
H	 0.0528598448	 1.8807015233	-1.1179485307	 0.118904
H	-0.889942928	 1.8332607502	 0.3895755513	 0.12198
H	 1.5163623066	-1.6305402119	-0.7345343911	 0.138791
H	 2.3156816843	-0.0558432759	-0.2315133816	 0.107932
H	 0.9867293644	-0.119324666	 1.9350260475	 0.108086
H	 0.2169448106	-1.6926204977	 1.3834653446	 0.139321
H	-1.9847936111	 0.8971246907	-1.4293349281	 0.257253
H	-2.7069677929	-0.6091161907	-1.8813310555	 0.258919
63.6928	90.6694	251.1803	263.4998	285.2296	337.1765	345.9323	445.6969	548.9495	584.3912	679.7473	771.59	794.1994	854.7844	876.6889	960.0145	962.905	1050.8987	1076.7583	1087.5646	1090.5621	1120.0492	1204.3483	1252.0758	1322.4889	1385.7528	1418.2296	1448.6132	1482.7872	1497.2199	1508.956	1615.1267	1773.2862	3017.5687	3075.0346	3102.6062	3136.7914	3139.5858	3229.2876	3242.1809	3614.4891	3752.7135
CC1(CC1)C(N)=O	CC1(CC1)C(=O)N	
InChI=1S/C5H9NO/c1-5(2-3-5)4(6)7/h2-3H2,1H3,(H2,6,7)	InChI=1S/C5H9NO/c1-5(2-3-5)4(6)7/h2-3H2,1H3,(H2,6,7)
