11
gdb 670	7.07853	5.03226	3.55918	1.5227	45.26	-0.2458	0.015	0.2608	400.9456	0.086946	-285.279992	-285.275658	-285.274714	-285.307405	16.529	
C	 0.0093513457	 1.4900208642	 0.0737426468	-0.314787
C	 1.3194072994	 0.765965465	-0.0162088427	 0.067034
O	 1.9534787174	 0.4566703674	 1.2187289304	-0.209797
C	 1.0841929915	-0.3680706136	 1.8627008664	 0.105509
N	 0.0114581606	-0.7158406691	 1.2745231857	-0.256185
C	 0.0204458109	-0.0246462243	 0.0033732919	-0.01372
H	-0.2717631802	 1.958642541	 1.0109455701	 0.129285
H	-0.3015319824	 2.0168362702	-0.8217236781	 0.124518
H	 2.018502483	 0.8871799523	-0.8326728739	 0.116061
H	 1.3972471899	-0.6720676659	 2.8537557926	 0.145634
H	-0.4167281058	-0.5433026371	-0.8406430593	 0.106447
355.2614	402.4069	613.4507	738.4245	748.073	793.3325	878.3506	923.9951	941.4654	984.1726	1006.3686	1041.8593	1075.6559	1104.8435	1114.7243	1137.2396	1193.4564	1290.7391	1335.9222	1369.3312	1461.6644	1667.4527	3132.5797	3188.7999	3204.6571	3226.9253	3233.7876
C1C2OC=NC12	C1[C@H]2OC=N[C@@H]12	
InChI=1S/C4H5NO/c1-3-4(1)6-2-5-3/h2-4H,1H2	InChI=1S/C4H5NO/c1-3-4(1)6-2-5-3/h2-4H,1H2/t3-,4+/m0/s1
