13
gdb 3758	4.05076	3.42009	1.87653	2.7379	55.69	-0.2145	0.0402	0.2546	645.1519	0.103009	-340.65257	-340.645874	-340.64493	-340.6836	23.555	
C	-0.0171743304	 1.422134758	-0.0292836832	-0.323971
N	-0.0119931821	-0.0226927917	 0.0169150276	-0.009069
N	-0.0471614585	-0.7557314474	-1.1303552518	-0.28103
C	 0.0225190003	-2.0157687722	-0.7212624461	 0.019185
C	 0.1108989748	-2.1267746785	 0.6836003418	-0.376337
C	 0.0883993236	-0.812817521	 1.1092399821	 0.443565
O	 0.1455032274	-0.225742344	 2.3274576571	-0.432441
H	 0.9992055768	 1.8250049591	-0.1005334325	 0.138846
H	-0.5844400011	 1.7294933107	-0.9082042331	 0.154947
H	-0.4902499272	 1.8127027791	 0.8734223449	 0.14853
H	 0.0025319358	-2.8137337334	-1.4495859251	 0.108757
H	 0.1745151836	-3.0143979366	 1.2916291976	 0.0961
H	 0.1579013171	-0.914340362	 2.9989850106	 0.312919
48.3955	176.023	255.4309	284.676	309.8938	469.9716	654.8844	666.2294	682.5857	731.9665	763.1637	878.5632	939.1455	1024.5464	1065.2735	1134.4768	1152.6419	1245.2788	1284.2632	1306.2248	1376.6996	1440.1459	1466.6601	1490.2588	1507.3028	1590.0193	1602.2521	3041.1006	3117.9152	3160.4666	3238.51	3263.3901	3847.4868
CN1N=CC=C1O	Cn1nccc1O	
InChI=1S/C4H6N2O/c1-6-4(7)2-3-5-6/h2-3,7H,1H3	InChI=1S/C4H6N2O/c1-6-4(7)2-3-5-6/h2-3,7H,1H3
