15
gdb 3477	4.44861	2.96936	2.63772	1.2694	60.07	-0.2323	0.0748	0.3071	595.9731	0.12644	-308.457242	-308.451622	-308.450678	-308.486168	22.965	
O	-0.1274603502	 1.4319118395	 0.0097054485	-0.452841
C	 0.0240241526	 0.0710765481	 0.0141214515	 0.375417
C	 0.0429816029	-0.9862146858	-1.0623628843	-0.145958
C	 1.297638088	-1.6372643859	-0.487202982	-0.219118
C	 0.9313657305	-0.9503630262	 0.8576935256	-0.131734
C	-0.3851197319	-1.6538912331	 1.2914030341	-0.219347
C	-1.0266195681	-0.9913465761	 0.0753435806	-0.103795
H	 0.6166404275	 1.8224427409	-0.4628216791	 0.28906
H	-0.2706530242	-0.8999067546	-2.0950193191	 0.08419
H	 1.3651112685	-2.7313019058	-0.4778297217	 0.088673
H	 2.2069059757	-1.220334947	-0.9304460916	 0.090929
H	 1.6987058733	-0.6982017409	 1.5868408367	 0.06869
H	-0.3661415019	-2.7484343308	 1.3503399598	 0.086431
H	-0.782309214	-1.24178788	 2.2229451644	 0.102141
H	-2.0751937887	-0.8927476123	-0.1742349835	 0.087264
241.7452	317.8285	360.7311	426.1935	486.0201	617.0722	690.2952	718.0767	802.8669	869.818	901.409	924.938	947.3587	962.949	984.8401	1010.0541	1024.3261	1064.787	1103.4014	1117.0193	1120.973	1175.8921	1208.7238	1219.5074	1246.2193	1290.5174	1293.0547	1322.9697	1480.9952	1490.3925	1512.3995	3028.2213	3035.8027	3088.2747	3097.7849	3136.1089	3194.1433	3204.3377	3782.741
OC12C3CC1CC23	O[C@@]12[C@H]3C[C@@H]1C[C@@H]23	
InChI=1S/C6H8O/c7-6-3-1-4(6)5(6)2-3/h3-5,7H,1-2H2	InChI=1S/C6H8O/c7-6-3-1-4(6)5(6)2-3/h3-5,7H,1-2H2/t3-,4+,5-,6-
