11
gdb 686	8.48055	3.58211	2.96781	3.7175	46.67	-0.2475	0.0085	0.2561	453.1664	0.086125	-285.279236	-285.27448	-285.273536	-285.307131	17.968	
O	-0.0032909353	 0.0486658157	 0.066840708	-0.336469
C	 0.0225233308	 1.2430840837	-0.0021927356	 0.423409
N	-1.0116779921	 2.2054811619	-0.0085928416	-0.34401
C	-0.0577756184	 3.3184022717	-0.0360033908	 0.013647
C	 0.9017494857	 3.2530119383	 1.1079449104	-0.279864
C	 1.0891632802	 2.3263824691	-0.0991690957	-0.212909
H	-1.8053355449	 2.1623056259	 0.6214539985	 0.242529
H	-0.233595849	 4.1826693347	-0.6619486074	 0.118281
H	 1.635212148	 4.0515808315	 1.1784363791	 0.127194
H	 0.5831684188	 2.8434604681	 2.062210126	 0.126488
H	 1.9822044363	 2.3315870594	-0.7066257409	 0.121704
216.622	422.3318	467.8361	591.2899	700.7233	754.2594	809.6883	831.3904	919.0387	924.3596	962.9854	1043.0054	1050.4694	1058.3817	1097.8792	1137.1838	1192.4393	1275.1916	1321.3415	1335.6696	1482.4873	1902.9492	3116.256	3203.1827	3212.0915	3232.6158	3542.9356
O=C1NC2CC12	O=C1N[C@H]2C[C@@H]12	
InChI=1S/C4H5NO/c6-4-2-1-3(2)5-4/h2-3H,1H2,(H,5,6)	InChI=1S/C4H5NO/c6-4-2-1-3(2)5-4/h2-3H,1H2,(H,5,6)/t2-,3+/m1/s1
