14
gdb 3008	6.35605	1.75381	1.45297	3.8156	55.32	-0.2609	-0.0061	0.2548	812.7204	0.112743	-361.704371	-361.697154	-361.69621	-361.736093	25.069	
O	 0.099415708	 1.3030583587	 0.2038925349	-0.419553
C	 0.0535869888	-0.0500939534	-0.14023532	-0.128388
C	-1.3889548805	-0.545943471	-0.1619945916	 0.345892
O	-2.3061366193	 0.2168145808	 0.0709720965	-0.352086
N	-1.5712343251	-1.8593047726	-0.5501311937	-0.073879
C	-1.1069969644	-3.0334668335	 0.1690085436	-0.234074
C	-2.5699292656	-2.7327949231	 0.0188169837	-0.216778
H	-0.8303112078	 1.5683473899	 0.2935163868	 0.29462
H	 0.495055089	-0.2338759686	-1.1321866474	 0.12298
H	 0.6295452824	-0.6581054883	 0.5756816747	 0.109085
H	-0.6430847538	-3.8081881071	-0.4345003144	 0.13588
H	-0.6619524567	-2.8839986465	 1.1497468126	 0.137087
H	-3.1079878004	-2.3643658759	 0.8876814042	 0.143976
H	-3.1643276645	-3.2977657193	-0.6927072199	 0.135238
75.5117	101.4893	190.3623	207.2895	331.9069	419.7706	457.7893	580.1166	596.906	796.0656	820.7666	921.76	976.5843	1031.3824	1049.2465	1114.1955	1133.6076	1136.1436	1160.2553	1175.6297	1186.5261	1244.5019	1309.6778	1400.8801	1469.0103	1496.2082	1501.0839	1524.6339	1774.543	2981.0797	3000.9022	3110.1197	3121.0817	3196.7475	3213.714	3680.9777
OCC(=O)N1CC1	OCC(=O)N1CC1	
InChI=1S/C4H7NO2/c6-3-4(7)5-1-2-5/h6H,1-3H2	InChI=1S/C4H7NO2/c6-3-4(7)5-1-2-5/h6H,1-3H2
