11
gdb 65	8.30095	3.97615	2.93764	2.7429	42.87	-0.2704	0.0278	0.2983	440.0738	0.091554	-227.338075	-227.332253	-227.331309	-227.366638	19.946	
C	-0.0106429484	 1.5412869064	 0.007220872	-0.370806
C	-0.0020381076	 0.0075601467	 0.0386346345	-0.095207
N	 0.7626867749	-0.4710182188	 1.1925085603	-0.490579
C	-1.3854195374	-0.5209925592	-0.0019409684	 0.247726
N	-2.4568084694	-0.9563607172	 0.006949687	-0.321979
H	 1.0204352268	 1.9010658908	 0.003923646	 0.139342
H	-0.5287316127	 1.9119345244	-0.8803148015	 0.138459
H	-0.5184953639	 1.9415043142	 0.8901319692	 0.132818
H	 0.504188281	-0.3580550036	-0.8627607195	 0.135437
H	 0.3007068147	-0.1836493372	 2.0515530517	 0.240078
H	 0.7814899219	-1.4867029867	 1.2042818286	 0.244712
190.7538	220.9386	255.601	297.8477	386.9168	571.7397	585.6988	784.9237	889.4288	936.2556	1016.6558	1092.7024	1152.7712	1257.9073	1336.3395	1392.039	1408.6416	1487.781	1494.6377	1664.564	2343.4358	3043.6319	3050.7724	3124.423	3142.58	3489.3882	3569.013
CC(N)C#N	C[C@@H](N)C#N	
InChI=1S/C3H6N2/c1-3(5)2-4/h3H,5H2,1H3	InChI=1S/C3H6N2/c1-3(5)2-4/h3H,5H2,1H3/t3-/m1/s1
