19
gdb 1247	6.35602	1.06785	0.97244	2.8513	69.1	-0.2475	-0.0181	0.2294	1207.8775	0.169116	-310.940611	-310.931655	-310.930711	-310.974733	31.088	
C	 0.0210830839	 1.5599907178	 0.0575547803	-0.390751
C	 0.0388862234	 0.0252073468	 0.0440422573	 0.04465
C	 0.8024754145	-0.51618274	 1.2601811706	-0.383725
C	-1.3995593799	-0.5203219487	-0.0420370874	-0.179371
C	-1.4964791584	-2.0412720951	-0.2609863619	-0.281474
C	-2.9335826841	-2.5051871582	-0.2949220753	 0.161006
O	-3.4519636582	-3.0975424797	-1.2059361946	-0.238883
H	 1.0374069817	 1.9664918363	 0.0775908398	 0.11286
H	-0.4844799982	 1.9624876718	-0.8263306188	 0.112974
H	-0.5040816464	 1.9379776172	 0.9429772349	 0.113142
H	 0.5707374965	-0.2976076197	-0.8624634466	 0.077016
H	 0.9026571552	-1.6054497735	 1.2382883234	 0.114654
H	 1.8129463658	-0.0970682573	 1.3007180873	 0.115316
H	 0.2939159962	-0.2444391071	 2.1932986296	 0.112378
H	-1.941514483	-0.247723018	 0.8749082586	 0.097527
H	-1.9193819676	-0.0152984339	-0.8657634299	 0.106772
H	-1.0093579549	-2.3449585311	-1.1925848459	 0.119508
H	-1.0061725632	-2.5675444685	 0.5695900905	 0.118867
H	-3.5166610232	-2.2444782991	 0.6210811681	 0.067533
56.4145	63.9661	109.3394	178.0044	229.3225	249.1062	297.4675	366.9318	420.6103	427.3834	527.9007	765.1167	809.5356	866.867	928.0976	936.712	967.2012	1013.333	1022.1535	1058.1332	1148.567	1167.2684	1192.7633	1228.2401	1269.1452	1316.6574	1343.2895	1372.2682	1383.8797	1402.3483	1423.4188	1430.1845	1463.6576	1485.1256	1490.5682	1498.2672	1505.2743	1511.7991	1836.5557	2843.1321	2999.3106	3009.7162	3022.1572	3024.841	3030.0423	3051.3265	3089.6381	3095.3815	3097.253	3101.8621	3105.9278
CC(C)CCC=O	CC(C)CCC=O	
InChI=1S/C6H12O/c1-6(2)4-3-5-7/h5-6H,3-4H2,1-2H3	InChI=1S/C6H12O/c1-6(2)4-3-5-7/h5-6H,3-4H2,1-2H3
