17
gdb 4947	5.29384	1.30148	1.12796	3.2315	71.64	-0.1812	0.0395	0.2206	1079.0587	0.144116	-360.082389	-360.074344	-360.0734	-360.115083	29.573	
C	 0.0016813827	 1.5480788539	-0.105090931	-0.370173
C	-0.0327661698	 0.0311962933	 0.0982921693	-0.15732
N	-1.373676946	-0.5237250546	 0.0403390052	 0.034469
C	-2.1179726998	-0.9618999491	 1.0846667251	-0.001248
N	-3.3157234744	-1.3707957724	 0.7151333232	-0.324906
C	-3.3567196265	-1.1810306347	-0.642763578	 0.286675
N	-4.5270024173	-1.4627269951	-1.3546824165	-0.595198
C	-2.1676506901	-0.6540807865	-1.0926170002	-0.215525
H	 1.0317832593	 1.9129701534	-0.0468535316	 0.120426
H	-0.4033401114	 1.822994829	-1.0828764624	 0.131897
H	-0.5905463744	 2.0547782415	 0.6620945931	 0.133511
H	 0.5861508696	-0.4675132808	-0.656448133	 0.12042
H	 0.3828236841	-0.2303765185	 1.076051619	 0.121637
H	-1.7338370162	-0.9687529505	 2.0944534938	 0.120367
H	-5.1177113121	-2.090619919	-0.8244210376	 0.246663
H	-4.3574951476	-1.8392042388	-2.2776996797	 0.238449
H	-1.8162374501	-0.369037161	-2.0696777587	 0.109856
59.8415	108.6474	202.2676	218.0586	281.5459	316.1715	408.4055	442.8955	604.2598	632.825	641.3411	691.0174	744.8688	787.085	797.1885	804.0413	962.1004	1006.9267	1053.1846	1095.8454	1100.188	1124.599	1206.7227	1262.7755	1280.9784	1364.4991	1392.3893	1405.8041	1412.4619	1456.2613	1484.5041	1489.7943	1506.5741	1543.177	1615.6338	1647.0296	3039.4813	3044.1224	3087.009	3118.229	3126.4275	3241.5844	3272.5888	3541.2755	3636.9282
CCN1C=NC(N)=C1	CCn1cnc(N)c1	
InChI=1S/C5H9N3/c1-2-8-3-5(6)7-4-8/h3-4H,2,6H2,1H3	InChI=1S/C5H9N3/c1-2-8-3-5(6)7-4-8/h3-4H,2,6H2,1H3
