17
gdb 2100	4.58846	2.32032	1.68173	1.762	65.34	-0.2416	0.0165	0.2581	761.2575	0.150411	-309.735245	-309.728618	-309.727674	-309.765479	25.872	
O	 0.1336275115	 1.41419086	 0.1448475353	-0.438646
C	 0.0529592982	-0.0062953452	 0.033183879	 0.111309
C	-1.3966650289	-0.5066226558	 0.0686068125	-0.215282
C	-1.4690661624	-1.9987628526	-0.2759425885	-0.211342
C	-0.9365853878	-2.2629695809	-1.6932945101	-0.238728
C	 0.3213470166	-1.4832476348	-1.9789584247	-0.05097
C	 0.769834503	-0.4975760852	-1.2014379392	-0.093193
H	-0.2550758096	 1.7847207507	-0.6556638594	 0.27301
H	 0.5803126663	-0.3674276891	 0.9272563997	 0.094303
H	-1.8339558382	-0.299218914	 1.0500818127	 0.099689
H	-1.9776641937	 0.0671469044	-0.6677521414	 0.084561
H	-0.8657645975	-2.564092303	 0.4462480981	 0.102731
H	-2.4959920458	-2.3667378518	-0.1806764838	 0.094863
H	-0.7479976987	-3.334349985	-1.8376126284	 0.103945
H	-1.7011628315	-2.0009048235	-2.4405746144	 0.107621
H	 0.8800684128	-1.7610924219	-2.8704335661	 0.086692
H	 1.6946712456	 0.0232670378	-1.4389681611	 0.089436
120.6048	257.5236	287.4015	337.2257	372.7318	446.6644	473.4859	564.84	680.8979	743.5843	808.7956	867.0595	906.7371	934.8645	975.8585	1012.6489	1053.6504	1069.4717	1083.8137	1099.8512	1144.2529	1199.4959	1240.7092	1264.5685	1282.2947	1335.6264	1368.0192	1374.5245	1375.645	1404.662	1428.6959	1474.6142	1488.7317	1496.6256	1718.0336	2994.3105	3003.5965	3013.8821	3023.9525	3041.2351	3072.589	3080.9253	3138.8261	3164.306	3794.8652
OC1CCCC=C1	O[C@H]1CCCC=C1	
InChI=1S/C6H10O/c7-6-4-2-1-3-5-6/h2,4,6-7H,1,3,5H2	InChI=1S/C6H10O/c7-6-4-2-1-3-5-6/h2,4,6-7H,1,3,5H2/t6-/m1/s1
