14
gdb 4977	3.33794	2.33586	1.38612	3.1422	66.02	-0.2451	-0.0348	0.2103	839.1361	0.108531	-378.780993	-378.774024	-378.77308	-378.812056	25.839	
C	 0.0250926776	 1.4975215293	 0.0255056597	-0.524976
C	 0.0212962762	-0.0076688459	 0.0227467234	 0.229285
N	-0.0538404516	-0.6389682681	-1.1531430725	-0.288819
C	-0.0560089156	-1.9708510767	-1.1363395858	 0.052672
N	 0.0095003615	-2.7549252023	-0.059739726	-0.246322
C	 0.0844794915	-2.1298273199	 1.1137874976	-0.038227
C	 0.0941424916	-0.7410690464	 1.2147040999	 0.271659
O	 0.1727578268	-0.1784616184	 2.4492859616	-0.431018
H	 0.9415732932	 1.9005640707	 0.4761450106	 0.136536
H	-0.0381183633	 1.8589425437	-1.0012201387	 0.159752
H	-0.8263046122	 1.9048014462	 0.586485075	 0.136556
H	-0.117565261	-2.4684520857	-2.1004405411	 0.115572
H	 0.1394563754	-2.7356642977	 2.0152748067	 0.123425
H	 0.1701807898	 0.7808302713	 2.3687820597	 0.303905
125.8372	158.7648	283.7821	288.3547	316.5944	442.3501	463.8977	540.7554	580.7025	617.408	763.1306	773.2424	887.8912	941.6534	980.1519	988.885	1055.6498	1157.6061	1172.2196	1244.3876	1279.3924	1291.8876	1353.5622	1400.6236	1451.7079	1474.2467	1487.0483	1499.9376	1599.2263	1631.0106	3014.3998	3063.3264	3148.4943	3161.5424	3172.2285	3827.8749
CC1=NC=NC=C1O	Cc1ncncc1O	
InChI=1S/C5H6N2O/c1-4-5(8)2-6-3-7-4/h2-3,8H,1H3	InChI=1S/C5H6N2O/c1-4-5(8)2-6-3-7-4/h2-3,8H,1H3
