15
gdb 3419	4.52645	2.80745	2.04297	3.1917	60.45	-0.2343	-0.0079	0.2264	654.7184	0.127011	-308.542644	-308.536796	-308.535852	-308.572188	22.829	
O	 0.0485245073	 0.0088128601	 0.0243557813	-0.331885
C	 0.0085723944	 1.2124079981	-0.0406429059	 0.421432
C	-1.2719611996	 2.0621825476	-0.1375489625	-0.339546
C	-0.8399481045	 3.376739242	-0.819706986	-0.223035
C	 0.6664152063	 3.4886818165	-0.5746018818	-0.028548
C	 1.1363241446	 3.3312210179	 0.8322319827	-0.286097
C	 1.1836293012	 2.1332373855	-0.1132922082	-0.13553
H	-2.0412663387	 1.5115869289	-0.681591993	 0.13015
H	-1.6589147204	 2.2268352725	 0.8750089602	 0.129159
H	-1.0255430218	 3.3160395838	-1.8971626426	 0.112199
H	-1.3843227786	 4.2499406199	-0.4461415823	 0.105869
H	 1.2572825474	 4.0922609888	-1.2538964752	 0.095022
H	 2.0996623819	 3.75262046	 1.0960978702	 0.125344
H	 0.4163637969	 3.3293498206	 1.6444646992	 0.120862
H	 2.1449487737	 1.7227703078	-0.3937224061	 0.104605
128.9609	236.4419	358.5422	450.8765	522.9639	612.9708	647.7254	752.2863	808.4026	829.8382	839.7616	907.5202	950.2161	958.2565	1005.3616	1040.2046	1067.5868	1100.3271	1107.289	1168.6984	1189.5372	1202.8284	1228.9986	1284.3683	1319.3211	1337.0424	1380.9697	1461.2213	1490.0497	1503.7413	1833.9238	3044.4186	3048.1052	3082.6647	3120.3554	3132.1498	3175.5556	3202.8208	3219.0682
O=C1CCC2CC12	O=C1CC[C@H]2C[C@@H]12	
InChI=1S/C6H8O/c7-6-2-1-4-3-5(4)6/h4-5H,1-3H2	InChI=1S/C6H8O/c7-6-2-1-4-3-5(4)6/h4-5H,1-3H2/t4-,5+/m0/s1
