13
gdb 4314	3.99157	1.88536	1.28125	6.3082	65.	-0.2183	-0.0335	0.1849	872.5345	0.097039	-398.665715	-398.659054	-398.65811	-398.696325	25.735	
N	 0.017877721	 1.3926183711	-0.1195110982	-0.579098
C	-0.0080458352	 0.0258580085	-0.0446100555	 0.387444
C	-1.1762902105	-0.6938960926	-0.0187860998	-0.372422
C	-1.2021765752	-2.124330927	 0.0068590315	 0.430102
O	-2.1509785701	-2.861436988	 0.0293727197	-0.357238
O	 0.0856224477	-2.751825249	 0.0125877597	-0.226749
C	 1.2067683246	-2.032405485	-0.0096154778	 0.105654
C	 1.2423853657	-0.6870034772	-0.0382990422	-0.25906
H	 0.8629011635	 1.8679453533	 0.1505221261	 0.261345
H	-0.8332683175	 1.893097528	 0.0793055773	 0.264225
H	-2.1435485648	-0.2062623397	-0.01967385	 0.102177
H	 2.0941309873	-2.656519924	-0.0018722536	 0.139399
H	 2.1906778234	-0.1660788884	-0.0647436173	 0.104221
156.5051	196.201	343.0836	373.6359	406.6471	456.7008	469.5612	523.9043	582.9171	699.1255	717.5396	732.5772	779.2949	834.6812	841.5334	948.068	978.2486	1084.7496	1104.3798	1172.8076	1282.4615	1314.9829	1385.1011	1503.5354	1584.8566	1655.1549	1697.1374	1847.6627	3191.7211	3203.2011	3218.2757	3598.5151	3710.5497
NC1=CC(=O)OC=C1	Nc1cc(=O)occ1	
InChI=1S/C5H5NO2/c6-4-1-2-8-5(7)3-4/h1-3H,6H2	InChI=1S/C5H5NO2/c6-4-1-2-8-5(7)3-4/h1-3H,6H2
