18
gdb 4817	6.40419	1.22701	1.04965	1.5817	77.31	-0.165	0.0517	0.2167	1143.7345	0.154634	-344.005267	-343.996642	-343.995698	-344.039402	30.88	
C	 0.0913464849	 1.4235601064	 0.0888100521	-0.317857
N	-0.2268063595	 0.0238647491	-0.1347686127	-0.384565
C	 0.4986717701	-0.6605848155	-1.1204640037	 0.289916
C	 0.6493688173	-2.0315794683	-1.2221987182	-0.215512
N	 1.386405638	-2.3004532368	-2.359298976	 0.033691
C	 1.7187763781	-3.6220939534	-2.8370289094	-0.33164
C	 1.6989679104	-1.1236453356	-2.9753962419	-0.08554
C	 1.1724831217	-0.0844078591	-2.2376630098	-0.25759
H	 1.1569821596	 1.614421836	 0.2993665069	 0.103327
H	-0.1855250532	 2.0150369094	-0.7905112641	 0.129045
H	-0.500864698	 1.7929128722	 0.9302888887	 0.114237
H	-0.2733438593	-0.49643507	 0.7298503929	 0.225015
H	 0.2911686028	-2.8297392751	-0.5918956799	 0.096658
H	 0.8273827811	-4.1671786392	-3.1700221953	 0.133953
H	 2.4066173539	-3.5358372393	-3.6804935886	 0.136666
H	 2.2086118974	-4.2079280165	-2.0516668885	 0.13354
H	 2.275567782	-1.1170078403	-3.8870241674	 0.109205
H	 1.2675474527	 0.9640768459	-2.4694621752	 0.087452
29.6072	62.7071	151.2078	198.2878	222.4653	311.8693	341.6297	461.6232	551.273	591.4971	607.2569	670.9225	691.0897	727.1195	739.6558	772.4916	975.5758	1016.5831	1067.4264	1089.9066	1109.0218	1148.6386	1151.7067	1158.699	1223.4262	1283.397	1376.2605	1399.3495	1429.3495	1454.5242	1467.5532	1480.3147	1483.8013	1491.277	1522.2985	1524.5932	1555.5301	1624.5015	2962.9392	3022.4806	3061.3974	3076.1127	3109.3651	3130.3548	3247.5957	3254.465	3267.6436	3579.7206
CNC1=CN(C)C=C1	CNc1cn(C)cc1	
InChI=1S/C6H10N2/c1-7-6-3-4-8(2)5-6/h3-5,7H,1-2H3	InChI=1S/C6H10N2/c1-7-6-3-4-8(2)5-6/h3-5,7H,1-2H3
