13
gdb 3307	6.13587	2.14964	1.90991	4.9681	57.44	-0.2389	0.0147	0.2536	671.5037	0.103358	-303.45472	-303.448834	-303.44789	-303.484426	22.104	
N	-0.0895967615	-1.1701818739	-0.1641657648	-0.32554
C	-0.0370489637	-0.0212539939	-0.0519728114	 0.308832
C	 0.0438598199	 1.4377679583	 0.0666075411	-0.143622
N	-0.1420098378	 1.9719944954	 1.4615260703	-0.319307
C	 1.1096663958	 2.7532339252	 1.3060606193	-0.004389
C	 2.245726755	 1.7905466389	 1.2011974513	-0.265618
C	 1.4274027372	 2.101953944	-0.0307119934	-0.08506
H	-0.655934993	 1.8848060488	-0.6464115262	 0.12459
H	-0.959717601	 2.5721108069	 1.4888437348	 0.232642
H	 1.1930894031	 3.7792447436	 1.6409647143	 0.106601
H	 3.2379398895	 2.2294119074	 1.1896667627	 0.122819
H	 2.1710609056	 0.8226637716	 1.6884718642	 0.138631
H	 1.854094981	 2.4876589578	-0.946339602	 0.109422
122.2265	187.2759	332.9509	440.595	539.2692	568.5276	687.3234	757.4516	807.3802	818.4231	922.3067	950.0754	971.1183	993.6941	1038.1615	1045.9441	1067.2281	1088.605	1106.0054	1170.4646	1217.8701	1280.8525	1315.2178	1371.0124	1399.3133	1480.8639	2357.7039	3059.1701	3123.6885	3193.6945	3205.0261	3219.1015	3530.5094
N#CC1NC2CC12	N#C[C@H]1N[C@H]2C[C@@H]12	
InChI=1S/C5H6N2/c6-2-5-3-1-4(3)7-5/h3-5,7H,1H2	InChI=1S/C5H6N2/c6-2-5-3-1-4(3)7-5/h3-5,7H,1H2/t3-,4+,5-/m1/s1
