16
gdb 250	7.28576	2.0531	1.72307	0.6828	62.17	-0.259	0.0553	0.3143	738.9549	0.140781	-234.476081	-234.46852	-234.467575	-234.506975	27.444	
C	 0.0324075417	 1.5597651675	 0.0173503882	-0.381531
C	 0.0165327393	 0.0274410148	 0.0305054658	 0.046433
C	 0.7401306193	-0.5295158287	 1.2618054783	-0.390536
C	-1.4291837338	-0.5260272859	-0.0298377316	-0.342475
C	-2.1505122569	-0.1629995548	-1.2436891238	 0.299917
C	-2.726220274	 0.139262088	-2.2551761211	-0.445603
H	 1.0589579093	 1.9399387642	 0.0096348267	 0.110323
H	-0.4845464252	 1.9534338078	-0.8620306386	 0.129396
H	-0.464366326	 1.9623774373	 0.9087359643	 0.109367
H	 0.5364722319	-0.3291892511	-0.8679611487	 0.085847
H	 0.242819125	-0.2118700025	 2.1862800077	 0.113131
H	 0.7634809319	-1.6244926985	 1.2541585815	 0.111009
H	 1.7738173614	-0.1720416972	 1.3033542233	 0.113351
H	-1.3996184762	-1.6199713974	 0.0562607039	 0.124633
H	-1.9858455552	-0.1676037942	 0.8474974509	 0.124342
H	-3.2444660827	 0.4018884507	-3.143725307	 0.192399
92.0398	151.8892	229.0621	256.359	333.9342	347.0089	355.0003	419.2355	520.2658	613.334	633.9643	816.6246	880.0025	924.6189	937.6916	968.5776	993.9859	1128.1159	1140.8942	1192.12	1256.312	1307.4529	1366.7332	1368.2179	1401.3435	1421.068	1467.9776	1489.1813	1493.5696	1503.6825	1511.0233	2235.4294	3007.832	3021.2348	3024.3184	3030.5142	3045.799	3089.2464	3095.1834	3102.1218	3115.5592	3507.2471
CC(C)CC#C	CC(C)CC#C	
InChI=1S/C6H10/c1-4-5-6(2)3/h1,6H,5H2,2-3H3	InChI=1S/C6H10/c1-4-5-6(2)3/h1,6H,5H2,2-3H3
