12
gdb 843	7.28598	2.14214	1.67258	2.5185	51.67	-0.2205	0.0268	0.2473	703.0693	0.090583	-360.553317	-360.54707	-360.546126	-360.583218	22.747	
C	-0.003215763	 1.4848411602	 0.0398166977	-0.48689
C	-0.000689527	-0.0036521214	-0.0204283072	 0.264178
C	-0.0687759595	-0.8227062287	-1.0925984661	-0.13231
O	-0.0320104537	-2.1325210433	-0.6315773378	-0.201219
C	 0.0571603836	-1.9885299546	 0.7071916036	 0.472917
O	 0.1110508025	-3.1020530316	 1.4359586461	-0.40103
N	 0.0811465346	-0.7787320192	 1.1462041486	-0.379005
H	 0.9119209935	 1.8553569651	 0.5135881539	 0.140692
H	-0.0759982405	 1.9188891874	-0.9606010943	 0.12291
H	-0.8458289757	 1.8471036548	 0.6380714255	 0.140753
H	-0.1408660069	-0.6928897565	-2.1575512445	 0.14175
H	 0.0743470221	-3.8589786022	 0.8388073643	 0.317254
151.2443	206.8522	287.2894	337.698	358.7134	483.9879	618.0826	639.5394	685.8743	748.4513	771.7285	966.3431	1012.7245	1025.552	1067.2228	1099.0069	1206.3751	1247.7303	1305.1966	1417.0626	1431.3999	1473.5441	1489.4949	1651.9838	1702.809	3038.3474	3095.0289	3122.8426	3302.7674	3816.6362
CC1=COC(O)=N1	Cc1coc(O)n1	
InChI=1S/C4H5NO2/c1-3-2-7-4(6)5-3/h2H,1H3,(H,5,6)	InChI=1S/C4H5NO2/c1-3-2-7-4(6)5-3/h2H,1H3,(H,5,6)
