13
gdb 2081	4.88769	2.67785	1.83994	3.6199	50.34	-0.2559	0.006	0.2619	655.8257	0.103073	-381.616196	-381.610192	-381.609248	-381.646271	21.652	
O	-0.0101385638	 0.0730396005	 0.4934591728	-0.318798
C	-0.0222892467	 1.1643454887	-0.0043745163	 0.385997
C	-1.3250072091	 1.9451453138	-0.1771554993	-0.213873
O	-1.2566460706	 3.1045850248	-0.9798625463	-0.237147
C	-0.093709109	 3.8507334215	-0.68145344	-0.102808
C	 1.1247048114	 3.0281881026	-1.0464431981	-0.065226
O	 1.135771122	 1.7577625563	-0.368576227	-0.222463
H	-2.0584632134	 1.2718333736	-0.6254005568	 0.154898
H	-1.6740986151	 2.1866039647	 0.8408349737	 0.132064
H	-0.1287812722	 4.7640041699	-1.2816694533	 0.126552
H	-0.0680589244	 4.1334620575	 0.3838275468	 0.105679
H	 1.1393839359	 2.8409385201	-2.1261320095	 0.128451
H	 2.054127965	 3.5295229561	-0.7620155766	 0.126675
108.1364	162.9293	343.8099	414.838	486.4343	505.4411	558.9234	678.4448	785.5308	902.5631	936.6355	1006.4853	1035.1496	1105.3252	1135.6471	1154.8816	1226.8596	1254.0068	1285.5007	1319.5537	1364.7218	1410.7436	1427.1836	1466.6608	1492.179	1504.4102	1852.7706	2975.4717	2980.6276	3044.331	3098.5311	3102.3685	3116.6871
O=C1COCCO1	O=C1COCCO1	
InChI=1S/C4H6O3/c5-4-3-6-1-2-7-4/h1-3H2	InChI=1S/C4H6O3/c5-4-3-6-1-2-7-4/h1-3H2
