16
gdb 1330	4.71336	1.71849	1.60428	3.3484	62.67	-0.2452	-0.0254	0.2198	835.2934	0.134951	-325.768959	-325.761205	-325.760261	-325.8006	28.058	
C	-0.2104126725	 1.5362872043	 0.0793898845	-0.438537
C	 0.0057085996	 0.0361097	 0.0196876419	 0.324136
C	-1.2221725256	-0.7572192485	-0.3848348369	-0.452641
N	 1.3110181843	-0.3940613977	-0.4719883771	-0.361518
C	 0.9755491441	-0.6561546048	 0.947571982	-0.157631
C	 1.7905393912	 0.0704229663	 1.958618685	 0.170238
O	 1.8973820493	-0.2834900566	 3.1069906893	-0.261874
H	 0.7230180469	 2.0697680968	 0.2642413361	 0.131922
H	-0.6151028578	 1.8925602892	-0.8744855894	 0.122422
H	-0.9266637446	 1.7966431692	 0.86561279	 0.125263
H	-1.5464237427	-0.4687674747	-1.3915821003	 0.127233
H	-1.0235234555	-1.8334783526	-0.3842505243	 0.117891
H	-2.056606203	-0.5674258195	 0.2982542047	 0.132994
H	 1.2386599589	-1.2579445519	-1.0044055164	 0.236475
H	 0.7053017841	-1.6641955446	 1.2536919346	 0.099129
H	 2.3100888034	 0.9733368949	 1.5715080263	 0.084498
96.976	166.4796	187.5037	231.7616	273.1889	358.1103	395.3111	411.7506	458.9652	516.6509	682.1343	814.8932	929.3337	954.7652	972.2065	984.7493	1033.9476	1059.8277	1086.9898	1105.0418	1153.0243	1221.649	1289.9438	1340.9032	1385.3055	1412.691	1423.9765	1444.4669	1477.5932	1489.3041	1499.0131	1511.941	1817.8691	2902.5838	3027.5202	3038.5756	3092.8628	3098.8131	3106.8607	3139.6921	3142.9073	3498.4085
CC1(C)NC1C=O	CC1(C)N[C@H]1C=O	
InChI=1S/C5H9NO/c1-5(2)4(3-7)6-5/h3-4,6H,1-2H3	InChI=1S/C5H9NO/c1-5(2)4(3-7)6-5/h3-4,6H,1-2H3/t4-/m0/s1
