15
gdb 4552	3.95379	1.76332	1.23283	3.1072	64.26	-0.1781	0.0466	0.2247	936.5494	0.120322	-396.018567	-396.010675	-396.009731	-396.050447	29.102	
C	-0.096193035	 1.461228534	 0.0387673583	-0.348227
N	 0.0049948453	 0.0204711609	-0.0184868724	-0.015707
C	 0.0635281287	-0.7651897175	-1.1773207128	-0.249317
C	 0.0802942671	-2.0502497403	-0.7163122644	 0.340302
O	 0.1225695542	-3.1851737352	-1.4515226722	-0.441289
N	 0.0593997307	-2.0998783211	 0.6522441308	-0.414932
C	 0.0165025573	-0.8356483907	 1.0339069648	 0.373977
N	-0.0962533054	-0.3907046455	 2.3539173104	-0.599052
H	 0.8810112713	 1.9483321168	-0.0663960789	 0.132298
H	-0.7483363042	 1.8176229181	-0.7629961027	 0.143901
H	-0.534714833	 1.7457749418	 0.9977059299	 0.153556
H	 0.0941314206	-0.3351410284	-2.1620480277	 0.119138
H	 0.1349150116	-3.9109690792	-0.8163611367	 0.296388
H	-0.1511472087	-1.194662775	 2.9673424304	 0.259489
H	 0.6769536095	 0.1959247713	 2.6487686632	 0.249474
123.416	154.5338	228.9549	245.8446	288.7784	322.9372	348.4045	364.8995	535.9453	608.2748	617.1563	669.4918	670.5291	722.7833	821.5224	846.6908	1034.7054	1065.337	1146.0051	1153.3775	1167.9446	1226.4151	1284.1942	1367.9168	1418.4343	1448.6367	1492.9693	1507.4978	1552.2545	1574.6825	1649.2685	1673.8625	3024.5038	3093.4932	3134.9672	3293.5839	3514.7651	3613.1646	3806.9478
CN1C=C(O)N=C1N	Cn1cc(O)nc1N	
InChI=1S/C4H7N3O/c1-7-2-3(8)6-4(7)5/h2,8H,1H3,(H2,5,6)	InChI=1S/C4H7N3O/c1-7-2-3(8)6-4(7)5/h2,8H,1H3,(H2,5,6)
