10
gdb 283	5.64251	3.73654	2.24793	0.0024	39.85	-0.2422	-0.0321	0.21	513.8164	0.073748	-338.559964	-338.553802	-338.552858	-338.589499	21.839	
N	-0.0445622032	 1.2902481998	 0.0088606139	-0.514753
C	 0.0573476386	-0.0513491974	 0.0006917416	 0.335636
O	 1.0864868443	-0.7042315334	-0.012590863	-0.374999
C	-1.3371538247	-0.7215771707	 0.0099716203	 0.335635
N	-1.2352349359	-2.0631798254	 0.0028112553	-0.514753
O	-2.3662900985	-0.0686953673	 0.0235163538	-0.374999
H	 0.7794981069	 1.8658783839	 0.0044531232	 0.270214
H	-0.9695388773	 1.6916240141	 0.01990427	 0.283903
H	-0.3102527021	-2.464559003	-0.0076313499	 0.283903
H	-2.059285178	-2.6388151106	 0.0082981949	 0.270214
98.9051	278.9554	331.3256	345.7277	398.4569	488.1261	531.7257	573.6214	671.0755	687.3196	766.9217	840.8225	1093.9914	1103.3502	1308.9496	1410.0329	1586.2341	1587.3036	1794.6198	1819.3479	3589.797	3590.0988	3737.064	3737.6789
NC(=O)C(N)=O	NC(=O)C(=O)N	
InChI=1S/C2H4N2O2/c3-1(5)2(4)6/h(H2,3,5)(H2,4,6)	InChI=1S/C2H4N2O2/c3-1(5)2(4)6/h(H2,3,5)(H2,4,6)
