13
gdb 3769	4.04827	3.40886	1.87903	5.3839	55.99	-0.2197	0.017	0.2368	646.0584	0.103569	-336.811099	-336.80446	-336.803515	-336.841556	23.554	
C	-0.0594246207	 1.4185653015	-0.00444855	-0.339576
N	-0.0044051023	-0.0237433706	 0.0457494154	 0.026368
N	 0.0197182682	-0.7633857488	-1.1007962263	-0.16288
N	 0.0400833042	-2.0122847208	-0.7515782667	-0.184327
C	 0.0478615455	-2.1068117077	 0.6059525615	-0.131969
C	 0.0212158823	-0.8316990945	 1.1333548434	 0.313735
N	-0.0703466272	-0.3293312157	 2.4300812204	-0.604805
H	 0.8928348788	 1.8686070735	 0.298651815	 0.135595
H	-0.270421854	 1.6992612835	-1.0362472191	 0.171498
H	-0.8540097375	 1.78776654	 0.6503070382	 0.151455
H	 0.0677452008	-3.0560183363	 1.1165929144	 0.109431
H	-0.003889204	-1.0622346177	 3.1235767268	 0.260742
H	 0.6101900858	 0.3920523136	 2.6389986871	 0.254733
113.026	184.7603	224.8707	261.5893	304.9156	443.5975	658.8455	671.3898	713.237	749.9155	762.403	800.8412	977.574	1018.8314	1100.4198	1152.9291	1153.9225	1253.6272	1275.3681	1321.3175	1368.4711	1440.2445	1485.4498	1506.9664	1529.0224	1611.934	1660.0252	3033.8811	3100.0003	3161.5148	3264.8327	3529.0101	3626.729
CN1N=NC=C1N	Cn1nncc1N	
InChI=1S/C3H6N4/c1-7-3(4)2-5-6-7/h2H,4H2,1H3	InChI=1S/C3H6N4/c1-7-3(4)2-5-6-7/h2H,4H2,1H3
