11
gdb 3796	8.25739	2.07363	1.67828	3.9986	48.88	-0.2498	-0.0573	0.1925	688.0612	0.078692	-372.694726	-372.688469	-372.687525	-372.725085	21.33	
C	 0.0119955358	 1.4462816643	 0.0635661213	-0.325438
N	-0.0892938421	 0.0055401724	-0.0992420512	-0.363558
C	 0.587568539	-0.6217543851	-1.088937281	 0.51973
N	 1.1885602462	-0.0513484479	-2.103706044	-0.20618
O	 1.6596237546	-1.1222382288	-2.8291730361	-0.145368
N	 1.3234169623	-2.2864308531	-2.19193842	 0.052796
N	 0.6796946116	-2.0070265971	-1.1462418797	-0.236651
H	 1.0271604534	 1.7721946762	 0.3257604021	 0.137286
H	-0.2724525381	 1.9387567372	-0.8696960706	 0.161909
H	-0.6789170138	 1.7597978144	 0.8477223205	 0.137384
H	-0.2490865488	-0.5565879526	 0.7210867088	 0.268091
120.2073	130.5547	198.5902	351.0982	409.4783	496.4635	644.5343	748.2967	775.4748	808.6983	926.5377	1055.4463	1065.5207	1124.4097	1154.0323	1185.495	1297.5454	1448.5197	1461.6688	1484.1037	1513.1297	1560.8621	1673.1928	3019.3572	3099.1979	3143.2869	3645.9414
CNC1=NON=N1	CNc1nonn1	
InChI=1S/C2H4N4O/c1-3-2-4-6-7-5-2/h1H3,(H,3,5)	InChI=1S/C2H4N4O/c1-3-2-4-6-7-5-2/h1H3,(H,3,5)
