18
gdb 800	3.95026	1.85752	1.43164	0.5991	67.04	-0.2393	0.0188	0.2581	904.2528	0.157266	-326.951067	-326.942156	-326.941212	-326.984134	31.926	
C	 0.0329320719	 1.5603992901	-0.0651398693	-0.380392
C	-0.0447830608	 0.0333136197	 0.0235254268	-0.042977
C	 0.6784659083	-0.4834883577	 1.2848105312	-0.386201
C	-1.4598637368	-0.5080808582	-0.02772723	 0.361002
C	-1.6724129822	-1.9896708071	-0.2054152747	-0.469837
N	-2.4183931527	 0.3286533895	 0.0879337154	-0.169106
O	-3.6731327318	-0.3075730061	 0.0493280789	-0.405964
H	 1.0793082205	 1.8821461341	-0.0736862243	 0.100142
H	-0.4531150524	 1.9322262039	-0.9704240348	 0.119028
H	-0.4644988313	 2.0283110714	 0.7886286176	 0.126555
H	 0.4777018613	-0.3913227099	-0.8472078995	 0.081832
H	 0.2108741301	-0.0754178876	 2.1871804511	 0.123787
H	 0.6532372159	-1.5749216823	 1.356047285	 0.115174
H	 1.7279861078	-0.1728995251	 1.2763985936	 0.1156
H	-2.0883398482	-2.4354564525	 0.7047444678	 0.14448
H	-2.4016476224	-2.1708760116	-1.000115475	 0.147202
H	-0.7391333095	-2.5014662776	-0.4487876621	 0.116459
H	-4.2770893178	 0.4391306371	 0.1163783623	 0.303215
64.5367	103.5665	194.3938	215.1092	226.797	264.6259	309.6824	344.9198	380.7077	440.9431	473.489	559.5666	621.8299	770.2407	892.4176	930.9609	967.2507	968.2881	1020.6674	1026.8551	1119.5872	1132.5534	1172.3599	1239.0678	1327.499	1366.2552	1393.4259	1398.7623	1400.6735	1420.1114	1473.5886	1482.3327	1484.7654	1487.7998	1501.2865	1511.5643	1727.115	2989.4833	3033.665	3042.5975	3043.2213	3102.1765	3104.3687	3107.9835	3112.7398	3124.2856	3132.3446	3823.1755
CC(C)C(C)=NO	CC(C)C(=NO)C	
InChI=1S/C5H11NO/c1-4(2)5(3)6-7/h4,7H,1-3H3	InChI=1S/C5H11NO/c1-4(2)5(3)6-7/h4,7H,1-3H3
