19
gdb 2726	13.10376	0.79168	0.76441	2.2451	65.7	-0.2495	0.0784	0.3279	1488.8173	0.169512	-348.043668	-348.034323	-348.033379	-348.078309	31.35	
C	 0.0236506006	 1.511380789	-0.0676448572	-0.384084
C	 0.0234259386	-0.0075335016	-0.0301378528	-0.027598
O	 0.6759459417	-0.4874924486	-1.1864218486	-0.241755
C	 0.7320840236	-1.894722243	-1.2522717418	-0.051026
C	 1.4533470873	-2.2909266895	-2.5330851704	-0.182104
C	 1.5669659521	-3.8003144901	-2.6994739142	-0.071636
O	 2.2514627529	-4.051150565	-3.9172769166	-0.419543
H	 1.0479313423	 1.8939844487	-0.0938521528	 0.126544
H	-0.498737658	 1.8728674807	-0.957960612	 0.126544
H	-0.4764126307	 1.9157568386	 0.8175326068	 0.1128
H	 0.5368985881	-0.3722660014	 0.8764539957	 0.082558
H	-1.009980437	-0.3933676145	 0.0122823626	 0.082555
H	 1.2597659542	-2.2987921807	-0.3697897583	 0.081123
H	-0.2873670301	-2.3200501714	-1.2344428013	 0.081114
H	 0.9199263642	-1.8735310338	-3.3936090261	 0.115581
H	 2.4568896007	-1.8525625812	-2.5345718672	 0.115594
H	 2.1094416188	-4.2322900448	-1.8420224717	 0.084119
H	 0.5616090343	-4.2533866563	-2.7076503044	 0.084126
H	 2.3257396366	-5.0032150451	-4.0292060496	 0.285089
61.0434	73.153	106.6757	133.204	142.3736	247.7915	261.7931	270.4014	327.4635	461.4646	517.8344	779.6851	821.7237	891.3891	894.4309	1018.0417	1041.8687	1064.6527	1086.6532	1148.8174	1170.7998	1171.3344	1194.5788	1233.8667	1246.6308	1294.749	1304.0217	1306.437	1319.3167	1391.6208	1410.4552	1456.4397	1466.579	1483.7695	1498.0949	1500.4455	1516.6533	1529.9817	1541.5586	2934.5548	2951.0578	2957.5536	2959.823	2970.9753	2980.4455	3044.6969	3051.699	3097.6876	3118.883	3121.1073	3830.9695
CCOCCCO	CCOCCCO	
InChI=1S/C5H12O2/c1-2-7-5-3-4-6/h6H,2-5H2,1H3	InChI=1S/C5H12O2/c1-2-7-5-3-4-6/h6H,2-5H2,1H3
