17
gdb 1679	3.85102	2.16158	1.53733	3.5809	61.53	-0.2284	0.0631	0.2915	835.258	0.148116	-343.07653	-343.067896	-343.066952	-343.109942	30.029	
C	-0.0191697999	 1.527436763	 0.0872335145	-0.374693
C	 0.0116259882	 0.0039875714	-0.0622728725	-0.148595
N	 0.713724823	-0.4447685038	-1.2617703913	-0.083933
C	 2.1569419821	-0.5795902749	-1.2106609214	-0.35286
C	-0.0250232733	-0.6435630458	-2.4030712678	 0.442816
N	 0.6867435152	-1.1280265175	-3.502165266	-0.570626
O	-1.2150172804	-0.3796210972	-2.4781629833	-0.413955
H	 0.990133266	 1.9517719047	 0.1213424038	 0.109154
H	-0.5540215123	 1.9719849961	-0.7557271013	 0.14425
H	-0.5327990554	 1.8101013704	 1.0119952968	 0.113294
H	 0.4961601294	-0.4591220529	 0.8056000398	 0.093863
H	-1.0083487354	-0.3788442324	-0.1222576034	 0.14019
H	 2.4823697541	-1.5980830578	-0.9478785092	 0.116146
H	 2.6043413304	-0.3045023277	-2.1689736615	 0.144876
H	 2.5594979311	 0.099924117	-0.4544350002	 0.134644
H	 1.4224621416	-1.7969433807	-3.3307929449	 0.247926
H	 0.0557451756	-1.408087252	-4.238505922	 0.257503
53.7883	83.1468	123.7168	148.4039	229.978	317.2297	383.6934	404.8103	440.0437	529.6666	581.3478	604.4325	748.6673	777.4063	790.8009	942.5848	1049.1042	1094.6334	1104.4885	1109.2047	1147.8346	1249.4473	1278.7534	1351.6741	1391.9565	1409.0441	1432.041	1467.5576	1488.0581	1492.2669	1502.5827	1505.5425	1526.4719	1625.4959	1776.7373	2983.417	3033.5896	3035.9237	3077.2489	3096.9371	3118.8479	3121.2075	3132.5359	3571.5955	3681.653
CCN(C)C(N)=O	CCN(C)C(=O)N	
InChI=1S/C4H10N2O/c1-3-6(2)4(5)7/h3H2,1-2H3,(H2,5,7)	InChI=1S/C4H10N2O/c1-3-6(2)4(5)7/h3H2,1-2H3,(H2,5,7)
