15
gdb 4930	6.80165	1.25064	1.06353	1.1249	63.87	-0.1745	0.0694	0.244	1058.0946	0.118574	-399.814989	-399.806916	-399.805971	-399.847159	29.474	
C	-0.0089095323	 1.3757161983	-0.0377118132	-0.239917
O	-0.0266502734	-0.0352378097	 0.0022777399	-0.262501
C	 0.6105010105	-0.5895757965	 1.0660198014	 0.376946
C	 1.2675545643	 0.0265571029	 2.105060392	-0.238647
N	 1.7433888346	-0.9945752118	 2.9288615449	-0.309438
C	 1.3887672147	-2.1982958437	 2.4107564936	 0.416609
O	 1.770765433	-3.3117241143	 3.0866650227	-0.436149
C	 0.6801878834	-2.0061050503	 1.2485327393	-0.4381
H	 1.019520178	 1.7606686528	-0.0884326578	 0.114395
H	-0.5520616822	 1.6746608079	-0.936044972	 0.127343
H	-0.5009053928	 1.8062701847	 0.8460257442	 0.114395
H	 1.4440250633	 1.0597098508	 2.3417957973	 0.112071
H	 2.2679268888	-0.8770492509	 3.776732762	 0.263337
H	 1.4515965335	-4.0801431686	 2.6045248019	 0.307579
H	 0.2598576265	-2.7586074616	 0.6013628838	 0.092077
90.4534	199.4898	208.5392	219.6092	235.5232	272.7518	369.1698	417.0907	495.2581	574.6522	634.3864	646.1983	674.1962	729.2729	735.6195	977.7134	1013.0223	1079.5711	1112.8665	1172.4726	1182.8551	1200.2043	1222.9037	1291.2358	1337.5326	1431.7267	1474.8423	1481.2143	1510.1606	1558.4638	1593.2583	1641.0661	2989.8443	3041.4824	3128.493	3259.8268	3294.6957	3699.1106	3850.9947
COC1=CNC(O)=C1	COc1c[nH]c(O)c1	
InChI=1S/C5H7NO2/c1-8-4-2-5(7)6-3-4/h2-3,6-7H,1H3	InChI=1S/C5H7NO2/c1-8-4-2-5(7)6-3-4/h2-3,6-7H,1H3
