13
gdb 4587	5.94363	1.58792	1.25456	2.0576	65.37	-0.2064	-0.0392	0.1672	891.1098	0.098125	-394.841434	-394.834926	-394.833982	-394.87181	25.337	
N	-0.0265898397	 1.3873488376	-0.0829597507	-0.571973
C	-0.0098454869	-0.0003395686	-0.0376362855	 0.349625
C	-1.1848621243	-0.7641821874	-0.0781601072	-0.073748
N	-1.1555018982	-2.095076373	-0.0907116136	-0.322811
C	 0.0361908105	-2.677256189	-0.0710656622	 0.390359
O	 0.0994732039	-4.028996241	-0.087284286	-0.424574
C	 1.2142397279	-1.9272394922	-0.0296711452	-0.084393
N	 1.1871214312	-0.599332184	-0.0079199845	-0.293519
H	 0.8448342418	 1.7996853349	 0.2185749954	 0.254972
H	-0.8353208917	 1.8309900328	 0.3257634991	 0.250577
H	-2.1631412953	-0.2899587598	-0.1010088084	 0.105558
H	-0.8147803252	-4.3415123517	-0.1151249183	 0.297547
H	 2.1826034761	-2.4180285987	-0.007645813	 0.122378
133.0413	316.1715	340.6764	388.0647	440.2503	440.999	463.4036	524.7465	556.687	622.9545	664.9864	795.5094	807.9957	900.4961	908.3432	939.9352	1035.4451	1081.4886	1188.1568	1276.6432	1315.0326	1341.0781	1361.5091	1463.5443	1526.7903	1600.7602	1634.5875	1655.0752	3152.3622	3175.9446	3566.7813	3675.0411	3777.6122
NC1=CN=C(O)C=N1	Nc1cnc(O)cn1	
InChI=1S/C4H5N3O/c5-3-1-7-4(8)2-6-3/h1-2H,(H2,5,6)(H,7,8)	InChI=1S/C4H5N3O/c5-3-1-7-4(8)2-6-3/h1-2H,(H2,5,6)(H,7,8)
