17
gdb 4092	1.87615	1.75846	0.93361	0.7666	77.86	-0.2279	-0.0417	0.1862	1211.1087	0.13584	-455.076552	-455.068085	-455.067141	-455.109728	32.048	
O	 1.1279122078	-0.8638161611	 0.1400511019	-0.381208
N	 0.0161570396	-0.0306744717	 0.2980062044	-0.215919
C	-1.0661963294	-0.6771885725	 0.067550403	 0.340496
C	-1.1983403296	-2.1319054717	-0.3372995841	-0.301946
C	-2.6463934951	-2.2464477576	-0.8563728099	-0.227815
C	-3.4278479441	-1.1941447244	-0.0454182178	-0.284673
C	-2.4157952443	-0.0849668647	 0.1699324411	 0.339447
N	-2.8180154993	 1.1132382612	 0.3729026153	-0.240091
O	-1.7846237124	 2.0219727825	 0.5585501854	-0.362617
H	 1.8588667997	-0.2618104121	 0.3192196077	 0.310936
H	-0.4379533622	-2.4131991363	-1.0690050211	 0.131066
H	-1.0360421429	-2.7685892202	 0.5424093891	 0.125776
H	-2.676276055	-1.9877733391	-1.920314697	 0.113253
H	-3.0567526752	-3.2533072873	-0.7513317368	 0.10412
H	-4.335125196	-0.8336425565	-0.5330609774	 0.122937
H	-3.7219960148	-1.6112977806	 0.927262143	 0.118566
H	-2.2634729767	 2.8512225522	 0.6697145132	 0.307672
76.4976	160.1145	185.5918	220.2279	268.3264	305.1033	404.1243	417.4092	459.2806	509.6635	549.4472	598.9178	624.0387	681.4088	766.9681	860.5569	876.0579	929.3656	973.826	1008.366	1032.5523	1058.7269	1120.2665	1143.4763	1202.5009	1240.0017	1253.8009	1310.4797	1321.0455	1340.4285	1405.5512	1415.2509	1470.5334	1482.4546	1503.1746	1681.6636	1728.2474	3019.6681	3030.2924	3050.7611	3102.4812	3108.9725	3116.5293	3801.6314	3811.1761
ON=C1CCCC1=NO	ON=C1CCCC1=NO	
InChI=1S/C5H8N2O2/c8-6-4-2-1-3-5(4)7-9/h8-9H,1-3H2	InChI=1S/C5H8N2O2/c8-6-4-2-1-3-5(4)7-9/h8-9H,1-3H2
