14
gdb 258	7.6927	1.90998	1.63513	3.3205	50.52	-0.2437	-0.0204	0.2232	730.3237	0.11705	-307.577822	-307.570462	-307.569518	-307.609331	25.112	
C	-0.0835065433	 1.5616643219	 0.0500555713	-0.402072
C	-0.062258645	 0.0346006666	 0.0233059693	 0.126039
O	 0.2031862938	-0.4656136341	-1.2841721282	-0.425997
C	 0.9302754427	-0.5480077831	 1.048959853	-0.282865
C	 0.8883867402	-2.0608318321	 1.1067289887	 0.155396
O	 0.863275562	-2.700383168	 2.1277913836	-0.243075
H	 0.9131809578	 1.967165511	-0.1660490733	 0.109605
H	-0.7800386554	 1.9410123718	-0.7024748327	 0.130292
H	-0.3895277727	 1.9379399332	 1.0310337864	 0.125222
H	-1.0672493142	-0.3385010498	 0.2556617264	 0.104367
H	 1.0208646322	-0.0597492421	-1.5941828797	 0.27911
H	 1.9478496592	-0.2507202844	 0.75006168	 0.109661
H	 0.7520160119	-0.1542096924	 2.0540651922	 0.121137
H	 0.8800665309	-2.5559481984	 0.1124439431	 0.093181
64.5411	100.0942	206.5192	248.5299	307.8765	343.8896	430.9394	469.8944	510.4672	784.5638	853.3208	932.7476	965.6559	1029.1764	1078.4748	1113.0642	1161.5408	1205.2305	1285.2708	1324.8839	1369.5566	1403.3658	1415.6595	1423.3279	1450.2973	1491.6175	1494.3723	1829.9718	2912.2187	2996.9862	3024.4777	3042.0761	3092.2571	3100.2717	3121.9829	3793.9704
CC(O)CC=O	C[C@@H](O)CC=O	
InChI=1S/C4H8O2/c1-4(6)2-3-5/h3-4,6H,2H2,1H3	InChI=1S/C4H8O2/c1-4(6)2-3-5/h3-4,6H,2H2,1H3/t4-/m1/s1
