15
gdb 2432	5.48083	2.78107	2.42181	1.8699	59.89	-0.2245	0.0819	0.3064	610.8271	0.125444	-308.450468	-308.444698	-308.443754	-308.479605	22.938	
C	-0.062244801	 1.4881564698	 0.0080380662	-0.507196
C	 0.0279286025	-0.0068024734	-0.031199245	 0.290717
C	 0.9156570237	-0.8854379306	-0.918724035	-0.277298
C	 0.0601556179	-2.0638917686	-0.3916507311	 0.073111
O	 0.4217677802	-2.1455064518	 1.0177329377	-0.296378
C	-0.2853222826	-0.9162544661	 1.1751096529	 0.058968
C	-1.0976504963	-1.0464408689	-0.0689006472	-0.188174
H	 0.8805258523	 1.9316178029	 0.3489899392	 0.125265
H	-0.2884389042	 1.9040339181	-0.9805612061	 0.120476
H	-0.8501782947	 1.8206562182	 0.6931081241	 0.119067
H	 0.7305184625	-0.6900218849	-1.9789399371	 0.099141
H	 1.991147483	-0.9372854025	-0.7176032499	 0.097104
H	-0.0000104025	-3.032412649	-0.8830241214	 0.085769
H	-0.5190126986	-0.5624551327	 2.1710749072	 0.104044
H	-2.1551414424	-0.9939682105	-0.2889955045	 0.095385
204.6949	255.0916	284.7185	446.1184	526.2334	607.1908	746.4199	770.2565	798.9966	822.4206	895.917	908.882	919.2533	937.5558	985.7643	1018.1281	1039.4959	1063.4408	1102.3558	1148.8379	1160.6209	1175.9817	1207.3372	1240.9029	1296.7746	1310.0019	1402.5847	1423.3681	1485.2978	1489.5114	1499.3031	3020.8217	3040.5752	3081.9239	3088.297	3102.8099	3146.5531	3197.649	3211.6453
CC12CC3OC1C23	C[C@@]12C[C@H]3O[C@@H]1[C@@H]23	
InChI=1S/C6H8O/c1-6-2-3-4(6)5(6)7-3/h3-5H,2H2,1H3	InChI=1S/C6H8O/c1-6-2-3-4(6)5(6)7-3/h3-5H,2H2,1H3/t3-,4+,5-,6+/m1/s1
