8
gdb 3826	9.95365	2.01097	1.67297	2.2847	47.28	-0.3307	-0.0952	0.2355	640.0362	0.044413	-354.254979	-354.249909	-354.248964	-354.284007	17.407	
N	 0.0377936423	-1.1389137581	-0.0042334675	-0.302458
C	-0.0100435427	 0.0159410475	 0.0029069868	 0.263383
C	-0.009979952	 1.4362656307	 0.0109275051	 0.2607
N	-1.1147923954	 2.1481722425	 0.0290019462	-0.126377
O	-0.7096756398	 3.437318837	 0.0311247819	-0.125644
N	 0.6556379529	 3.5482463074	 0.0143727776	-0.036359
C	 1.1039902932	 2.3264820581	 0.0017855248	-0.11425
H	 2.1594030515	 2.1064081648	-0.0128861451	 0.181005
179.8601	188.5247	507.3841	550.9043	582.9881	650.6102	722.4075	879.1542	905.7029	954.7038	1021.5131	1079.6078	1193.96	1389.7998	1450.71	1581.8732	2371.5094	3283.7637
N#CC1=NON=C1	N#Cc1nonc1	
InChI=1S/C3HN3O/c4-1-3-2-5-7-6-3/h2H	InChI=1S/C3HN3O/c4-1-3-2-5-7-6-3/h2H
