12
gdb 73	9.78802	3.78441	2.84416	3.499	42.54	-0.2438	0.0355	0.2793	457.447	0.101847	-248.448467	-248.441988	-248.441044	-248.478935	21.374	
C	-0.0022014398	 1.5334432873	-0.0596036936	-0.36627
C	-0.0323583669	 0.0120616696	 0.0684026475	-0.289529
C	 0.6966608638	-0.4819646235	 1.3182832162	 0.412604
N	 0.9810400725	-1.8203416172	 1.3198469803	-0.520155
O	 1.0039212431	 0.2460623174	 2.2413674887	-0.354586
H	 1.0211118962	 1.8952516911	-0.1918267184	 0.126965
H	-0.5970720384	 1.8620642709	-0.9164560411	 0.105427
H	-0.3972883887	 1.9992071233	 0.8454520117	 0.140316
H	-1.0693608305	-0.3455293485	 0.1304080595	 0.122931
H	 0.3994716489	-0.4690681808	-0.8177701986	 0.109302
H	 0.6328195115	-2.4391764682	 0.6087478456	 0.2545
H	 1.3570801382	-2.2221779315	 2.1630352224	 0.258494
26.3748	177.7158	196.4808	256.2603	438.8403	503.2201	600.9568	642.2477	785.8419	817.1453	1003.3503	1060.296	1099.3969	1122.4828	1282.0172	1287.0467	1398.2464	1412.0177	1466.4697	1491.3665	1501.5913	1617.416	1801.5824	3019.8147	3050.7825	3055.7477	3118.7279	3136.5187	3600.1487	3735.4868
CCC(N)=O	CCC(=O)N	
InChI=1S/C3H7NO/c1-2-3(4)5/h2H2,1H3,(H2,4,5)	InChI=1S/C3H7NO/c1-2-3(4)5/h2H2,1H3,(H2,4,5)
