21
gdb 2204	4.01416	2.07428	1.61846	0.1391	74.19	-0.2775	0.08	0.3575	874.545	0.194624	-274.987123	-274.978912	-274.977968	-275.018819	31.376	
C	-1.3226982594	 0.6070705596	-1.2740876785	-0.414565
C	-0.1352599147	-0.2366956488	-0.8337703941	 0.055129
C	 1.2942145975	 0.1612688942	-1.2891462726	-0.246106
C	 1.828556986	-0.3249180154	 0.0846225681	 0.05513
C	 2.9860603884	 0.4135028446	 0.7409379267	-0.414565
C	 0.3710634612	-0.2061650578	 0.6495485499	-0.010992
C	 0.0670392276	 1.07562004	 1.4227866228	-0.395513
H	-1.1854070097	 1.6650358882	-1.0281858495	 0.111753
H	-1.4636127289	 0.5387227989	-2.3588668753	 0.1111
H	-2.2527135581	 0.272599089	-0.8001382333	 0.110484
H	-0.3181675589	-1.2811292045	-1.1125561198	 0.0668
H	 1.6956458385	-0.3066566969	-2.1924835619	 0.087697
H	 1.3921426084	 1.2480647816	-1.3941499244	 0.0905
H	 2.0820524253	-1.3889567955	 0.0099233612	 0.0668
H	 2.7878764225	 1.4865394182	 0.8299529302	 0.111753
H	 3.1919977994	 0.027999243	 1.7461266773	 0.110484
H	 3.9021437702	 0.2976721252	 0.1504733944	 0.1111
H	 0.0498904708	-1.0612363505	 1.2541766706	 0.056024
H	 0.3628931039	 1.9776023141	 0.8767548335	 0.113229
H	-1.0042434957	 1.1583410004	 1.6347230318	 0.111878
H	 0.5946602256	 1.0865296525	 2.3824239131	 0.111879
101.2513	205.0755	212.7915	249.0256	251.0314	271.0286	329.896	359.9546	478.0421	481.9348	613.3949	748.9179	779.2781	872.1536	873.2284	916.6837	964.3004	978.6619	1015.3838	1043.4499	1048.1101	1103.4291	1154.8702	1174.5629	1188.9523	1194.5969	1249.4895	1268.02	1283.7942	1301.0774	1361.5069	1371.7448	1389.0469	1410.4922	1413.9173	1416.3805	1488.8523	1491.4202	1492.7714	1494.4647	1502.3532	1507.0723	1508.7426	3021.5613	3024.5248	3025.0759	3029.4524	3030.3394	3037.752	3044.3541	3085.2877	3085.7002	3089.838	3094.8113	3095.2712	3100.2813	3104.6651
CC1CC(C)C1C	C[C@H]1C[C@@H](C)[C@H]1C	
InChI=1S/C7H14/c1-5-4-6(2)7(5)3/h5-7H,4H2,1-3H3	InChI=1S/C7H14/c1-5-4-6(2)7(5)3/h5-7H,4H2,1-3H3/t5-,6+,7-
