21
gdb 1192	4.35126	1.60871	1.57457	1.3308	70.47	-0.26	0.064	0.324	941.358	0.192392	-312.134532	-312.125143	-312.124199	-312.167545	34.75	
C	-0.1883520813	 1.5391134647	-0.0492588592	-0.391609
C	 0.0572703159	 0.0283562413	 0.0010256097	-0.194314
C	 0.8136670975	-0.4735563238	 1.2529351223	 0.362402
C	 2.2011018206	 0.1632058201	 1.3694641949	-0.401672
O	 0.115153648	-0.0632815044	 2.4388251499	-0.459162
C	 0.8950297277	-2.0169636197	 1.201990892	-0.19439
C	 1.5380275698	-2.6759642767	 2.4257326388	-0.391612
H	 0.7396192494	 2.0993882039	-0.1966208763	 0.116866
H	-0.8591054064	 1.7942611706	-0.8753627325	 0.106932
H	-0.6432949538	 1.8844559341	 0.883135922	 0.125255
H	-0.9102513987	-0.4933618795	-0.0322973562	 0.079466
H	 0.6009711786	-0.2957992402	-0.8952859446	 0.093078
H	 2.121803558	 1.2506010458	 1.4323176197	 0.12309
H	 2.7089913664	-0.1822982788	 2.2724242958	 0.123057
H	 2.8182583492	-0.0920974046	 0.5026490529	 0.107976
H	-0.7683461905	-0.4467970901	 2.403495357	 0.272997
H	-0.1298103917	-2.3987217475	 1.0863564316	 0.079478
H	 1.4276719518	-2.3139187128	 0.2897597192	 0.0931
H	 1.0746815525	-2.3095740041	 3.3458755842	 0.125238
H	 1.4167304406	-3.7628404962	 2.3877342391	 0.106942
H	 2.6104973964	-2.4685941621	 2.4853747099	 0.116883
104.4557	106.9629	186.5233	189.514	238.5371	252.6311	314.2198	323.2621	346.6304	379.5226	412.8812	447.3565	562.4906	724.398	778.6931	796.1078	888.2866	925.6109	983.182	996.4383	1009.5685	1050.1807	1082.6212	1097.0192	1161.1776	1185.8073	1217.4376	1284.7691	1300.0791	1366.9768	1369.842	1388.3712	1405.4231	1411.2364	1430.341	1470.9075	1485.454	1486.1602	1496.6272	1500.4164	1510.4174	1511.5091	1520.7102	2998.8695	3007.1609	3041.7873	3043.8942	3043.9627	3049.6241	3054.3653	3106.5935	3107.4884	3120.4398	3121.6844	3124.9515	3132.7852	3795.802
CCC(C)(O)CC	CCC(C)(O)CC	
InChI=1S/C6H14O/c1-4-6(3,7)5-2/h7H,4-5H2,1-3H3	InChI=1S/C6H14O/c1-4-6(3,7)5-2/h7H,4-5H2,1-3H3
