15
gdb 1161	3.51331	2.10401	1.86928	2.2331	63.47	-0.2515	-0.0302	0.2213	766.8706	0.121148	-308.499105	-308.490761	-308.489817	-308.531342	29.677	
C	 0.0116448226	 1.6008914615	-0.0228340096	-0.404143
C	 0.0189801867	 0.0636908586	-0.0478884744	-0.010389
C	 0.6578006195	-0.51740552	 1.2409025202	-0.414762
C	-1.4190330651	-0.4848114085	-0.1175264995	 0.159118
O	-2.4097940297	 0.1877750884	-0.0346170608	-0.243083
C	 0.7207502399	-0.4522548721	-1.224403009	 0.330502
C	 1.2659694878	-0.8980934497	-2.1990810661	-0.496048
H	 1.0327936583	 1.9820595744	 0.0557242048	 0.120925
H	-0.4426002664	 2.00166975	-0.9312373259	 0.1365
H	-0.5702165213	 1.9568204278	 0.8307154403	 0.129945
H	 0.1380982541	-0.1343945456	 2.1243173137	 0.129766
H	 0.6090545399	-1.6100408598	 1.2494118981	 0.130526
H	 1.7093415553	-0.2250850323	 1.2970654501	 0.137314
H	-1.4668587503	-1.5896116217	-0.2389480374	 0.089916
H	 1.7585182588	-1.279199821	-3.0595555345	 0.203912
72.141	164.4757	173.8201	209.2897	246.186	277.9301	330.544	362.1441	497.3492	532.4533	580.214	627.9695	646.9141	749.2806	880.0459	920.058	957.0757	1019.1494	1045.2909	1166.2843	1221.5987	1243.2671	1393.193	1404.936	1425.9809	1478.3911	1482.6168	1495.3005	1504.9408	1837.7211	2228.4486	2891.4799	3041.2325	3055.1436	3118.4678	3125.1332	3133.0929	3137.872	3500.5357
CC(C)(C=O)C#C	CC(C)(C=O)C#C	
InChI=1S/C6H8O/c1-4-6(2,3)5-7/h1,5H,2-3H3	InChI=1S/C6H8O/c1-4-6(2,3)5-7/h1,5H,2-3H3
