14
gdb 4884	4.8775	1.49341	1.18015	5.2349	61.12	-0.1884	0.0442	0.2326	971.4829	0.10785	-415.901917	-415.894222	-415.893277	-415.934258	27.424	
C	-0.1268152298	 1.4224854566	 0.1687410921	-0.33621
N	-0.094051123	 0.0740589058	-0.4043658626	-0.384207
C	-1.1676575352	-0.7560222003	-0.1587016223	 0.410175
C	-1.2892999284	-2.0457106713	 0.2003596748	-0.235223
N	-2.6682585947	-2.3322130423	 0.1288710875	-0.362263
C	-3.3735889882	-1.2153890222	-0.2192570927	 0.482754
O	-4.5540286708	-1.0380291497	-0.3497884205	-0.403561
O	-2.4114401293	-0.2235147312	-0.4137300366	-0.232045
H	 0.7329022388	 1.9817518477	-0.206578305	 0.129124
H	-1.0356507049	 1.9268835451	-0.1629358038	 0.163647
H	-0.1060837827	 1.4302825076	 1.2686424572	 0.115681
H	 0.7821477099	-0.4029310465	-0.2416230255	 0.242646
H	-0.5533148379	-2.7789302606	 0.4756281143	 0.135149
H	-3.1186324241	-3.2023984687	 0.346086623	 0.274333
77.135	141.1663	163.2252	180.2517	287.7969	390.8373	429.7883	545.3512	596.145	618.7767	667.5649	695.7769	759.2139	782.6648	938.3111	966.4197	1057.1339	1074.1598	1131.699	1149.2242	1176.9673	1324.0103	1357.8546	1406.0431	1458.8431	1477.7609	1493.7587	1517.0582	1734.3591	1903.5791	2994.4307	3101.8441	3147.3465	3298.5622	3588.814	3706.7894
CNC1=CNC(=O)O1	CNc1c[nH]c(=O)o1	
InChI=1S/C4H6N2O2/c1-5-3-2-6-4(7)8-3/h2,5H,1H3,(H,6,7)	InChI=1S/C4H6N2O2/c1-5-3-2-6-4(7)8-3/h2,5H,1H3,(H,6,7)
