19
gdb 1792	3.85855	1.92675	1.62737	1.2685	67.67	-0.2483	0.0747	0.3231	870.9935	0.169702	-310.912077	-310.903541	-310.902597	-310.944365	31.661	
C	 0.2059392521	 1.573499057	 0.1656707891	-0.393996
C	-0.145067273	 0.1001414482	-0.0764758676	-0.226143
C	 0.6069101369	-0.5005708046	-1.2495246247	 0.415324
O	 0.3329553541	 0.1274870526	-2.4819585402	-0.47485
C	 2.004569151	-1.0541260243	-1.0705268947	-0.355527
C	 0.8399589873	-1.977391526	-1.3910460244	-0.02936
C	 0.3503120448	-3.011487254	-0.4019932655	-0.414249
H	 1.2766636125	 1.698640915	 0.3612932033	 0.116171
H	-0.0560911466	 2.190406312	-0.7006897503	 0.112083
H	-0.341385624	 1.9729974801	 1.0243728161	 0.115298
H	 0.0678162181	-0.4761510204	 0.8293821531	 0.094889
H	-1.2216219097	 0.0069648531	-0.2666921927	 0.103118
H	 0.7698198456	 0.9859101646	-2.4789340338	 0.28008
H	 2.7284896452	-0.8574868918	-1.8538270529	 0.106965
H	 2.4180919884	-1.0909514213	-0.0665994171	 0.10339
H	 0.8047128057	-2.2984846538	-2.428505415	 0.095308
H	 0.4466804669	-2.6703732899	 0.6328515041	 0.114296
H	-0.7022580557	-3.2634807499	-0.5729886258	 0.119519
H	 0.9319231005	-3.9353826666	-0.4937772912	 0.117685
88.9531	148.3968	197.9813	208.9557	237.0413	277.2374	315.0644	392.8662	423.7632	455.3895	529.2661	688.7552	777.8795	806.816	874.6647	915.5618	924.7886	979.6632	1024.2871	1028.1546	1052.2054	1086.3692	1124.173	1141.1728	1186.3273	1229.9347	1290.8952	1309.9055	1330.195	1379.7676	1403.7022	1409.4913	1426.19	1474.3991	1488.8985	1493.2748	1498.1546	1508.4382	1512.0521	3028.0817	3030.9033	3033.1109	3075.5323	3088.3512	3099.1239	3103.4737	3107.0412	3121.715	3149.6473	3212.0611	3800.6482
CCC1(O)CC1C	CC[C@@]1(O)C[C@H]1C	
InChI=1S/C6H12O/c1-3-6(7)4-5(6)2/h5,7H,3-4H2,1-2H3	InChI=1S/C6H12O/c1-3-6(7)4-5(6)2/h5,7H,3-4H2,1-2H3/t5-,6-/m1/s1
