15
gdb 2889	6.66262	1.80917	1.53272	1.0187	62.45	-0.2516	0.0498	0.3015	791.5825	0.125742	-308.487195	-308.48032	-308.479375	-308.518824	24.827	
C	-0.2356320607	-1.1971950604	-0.4930899831	-0.461172
C	-0.1160286638	-0.0362991192	-0.2038515398	 0.307269
C	 0.0498784219	 1.3620442107	 0.1528686101	-0.155599
C	-0.4570057406	 1.7416116847	 1.5755850264	-0.251116
C	 0.5710081959	 2.8001249208	 2.053700497	-0.076928
O	 1.4659737568	 3.0304621806	 0.9691668646	-0.241172
C	 1.5203109744	 1.8378720023	 0.2156584741	-0.090721
H	-0.3456520757	-2.2203792419	-0.7544568469	 0.195875
H	-0.4670449174	 1.9869414874	-0.5843388714	 0.111261
H	-1.4767052679	 2.1297665917	 1.5425732462	 0.117222
H	-0.4553940332	 0.8646283379	 2.2260730579	 0.120098
H	 0.1172609488	 3.7600360747	 2.3144985923	 0.111658
H	 1.1228707225	 2.432946186	 2.9315151444	 0.097225
H	 2.1432150062	 1.0713481852	 0.7045759298	 0.096921
H	 1.9459390628	 2.0675037596	-0.7635288117	 0.11918
33.6747	157.7698	179.6922	285.2867	501.0023	507.0919	544.8243	631.123	633.3111	692.0182	813.6102	870.7979	938.6174	966.2054	981.5648	1052.7533	1066.3335	1101.211	1134.2936	1225.7091	1229.632	1273.7092	1288.4756	1301.3216	1329.0087	1366.7481	1401.1866	1499.0636	1508.9745	1528.3726	2237.344	2976.7626	2994.3398	3040.2053	3077.611	3084.7721	3108.602	3126.8641	3504.6611
C#CC1CCOC1	C#C[C@H]1CCOC1	
InChI=1S/C6H8O/c1-2-6-3-4-7-5-6/h1,6H,3-5H2	InChI=1S/C6H8O/c1-2-6-3-4-7-5-6/h1,6H,3-5H2/t6-/m0/s1
