14
gdb 21	7.75166	7.74847	4.48668	0.0897	45.46	-0.3167	0.0843	0.401	355.0621	0.131146	-158.342346	-158.336603	-158.335658	-158.370016	20.273	
C	-0.0321588811	 1.5402159847	 0.0107445588	-0.370438
C	 0.0338174132	 0.0074585217	 0.0018071612	 0.064357
C	 0.7137557194	-0.50856404	-1.2729694853	-0.370398
C	 0.7384899858	-0.5222088643	 1.2575090679	-0.370427
H	 0.9752273599	 1.9741434099	 0.0052836184	 0.109505
H	-0.5619676933	 1.9223232554	-0.8683541813	 0.10781
H	-0.5481723936	 1.9126841393	 0.9020803851	 0.107822
H	-0.9975252478	-0.3731057842	 0.0097729651	 0.071533
H	 1.7507002148	-0.155867844	-1.3326963135	 0.109494
H	 0.7344669137	-1.6032828803	-1.2993969612	 0.107789
H	 0.1936701054	-0.1608558933	-2.1719550787	 0.10782
H	 0.2361199025	-0.1838201713	 2.1700525984	 0.107823
H	 0.7596408325	-1.6171315293	 1.2722610065	 0.107801
H	 1.7763586586	-0.1698531842	 1.3005301884	 0.109509
208.9614	254.2567	256.087	358.1429	362.2204	429.3799	798.6632	920.3835	922.5698	953.0005	973.5277	974.5358	1192.8662	1193.789	1212.4628	1358.8896	1359.3294	1399.1271	1399.5233	1430.3641	1481.77	1487.4723	1487.8113	1507.9085	1508.3561	1514.2177	3000.2679	3020.2432	3020.3946	3027.707	3084.5857	3084.7847	3093.0871	3094.3427	3097.6257	3097.9961
CC(C)C	CC(C)C	
InChI=1S/C4H10/c1-4(2)3/h4H,1-3H3	InChI=1S/C4H10/c1-4(2)3/h4H,1-3H3
