17
gdb 4921	6.71745	1.21354	1.0437	1.4593	72.67	-0.1834	0.0347	0.2182	1136.5039	0.142332	-363.888167	-363.879959	-363.879015	-363.92075	29.973	
C	-0.0369099126	 1.4459192811	-0.0557832511	-0.324526
N	 0.0515262624	 0.0000155807	 0.0339111189	-0.381791
C	-1.146615302	-0.7112471024	 0.0347658215	 0.288723
C	-2.4153341587	-0.2411388968	 0.2166844418	-0.117481
O	-3.3081912575	-1.2865900437	 0.216710009	-0.192749
C	-2.5990985362	-2.4256239644	 0.0178129031	 0.395122
C	-3.3684985032	-3.697242847	-0.0288239078	-0.488046
C	-1.2743656267	-2.138860345	-0.0980209458	-0.392966
H	 0.9691705592	 1.8691287144	-0.1032415148	 0.120741
H	-0.6120967558	 1.7987746401	-0.9280089706	 0.108294
H	-0.5228837081	 1.8383486753	 0.8446956188	 0.132062
H	 0.7343754475	-0.3938768022	-0.5977427601	 0.232416
H	-2.8360031966	 0.7367265916	 0.3685636219	 0.118451
H	-4.103778676	-3.6925099685	-0.8417162475	 0.136011
H	-2.6900951578	-4.5386701389	-0.1860795656	 0.131866
H	-3.9165796815	-3.8682623838	 0.9047298222	 0.137192
H	-0.4752594663	-2.8485307206	-0.2503595942	 0.096681
89.7343	111.9209	174.6061	208.3784	230.0577	315.0998	362.1371	453.8925	544.9553	618.2469	638.3837	666.9304	690.2035	739.3318	783.4002	945.591	984.2956	1019.3459	1062.8779	1081.0183	1139.1399	1156.1177	1169.5981	1195.637	1256.2392	1324.4085	1388.8184	1415.0477	1457.7458	1472.6682	1479.9372	1490.4549	1505.634	1525.4943	1599.5149	1676.8251	2965.964	3029.726	3058.3389	3079.4244	3117.5115	3128.3513	3245.6578	3295.6178	3582.298
CNC1=COC(C)=C1	CNc1coc(C)c1	
InChI=1S/C6H9NO/c1-5-3-6(7-2)4-8-5/h3-4,7H,1-2H3	InChI=1S/C6H9NO/c1-5-3-6(7-2)4-8-5/h3-4,7H,1-2H3
