14
gdb 1064	7.33744	1.92844	1.55638	1.3152	57.91	-0.2387	0.0086	0.2473	771.9223	0.114746	-324.614459	-324.608044	-324.6071	-324.645273	22.939	
C	-0.7683050548	 1.1078338996	 0.0539800207	-0.388219
C	 0.5686226969	 0.3701875747	-0.0537845366	-0.281884
C	 0.9856897648	-0.3182525907	 1.20622986	 0.257428
C	 0.3722933815	-0.3933025806	 2.4135880362	-0.109469
O	 1.154941853	-1.1432393495	 3.2524536647	-0.143004
C	 2.2160260105	-1.484910326	 2.4905949035	 0.071629
N	 2.1828990115	-1.03584355	 1.2810649725	-0.306036
H	-0.7328055291	 1.8841286422	 0.8254492811	 0.121179
H	-1.0208387094	 1.5905188918	-0.8938933278	 0.118876
H	-1.5824023728	 0.4203034207	 0.3062333783	 0.121136
H	 0.5243774786	-0.3741631311	-0.8588832766	 0.122387
H	 1.3620593414	 1.0690493497	-0.3473849687	 0.122418
H	-0.5435761807	-0.0122430404	 2.82906215	 0.144685
H	 2.9753369787	-2.0902405904	 2.9607380527	 0.148874
54.2766	194.7113	212.8678	300.393	430.7824	635.4854	649.8104	673.145	755.6899	799.8057	849.8875	933.7378	959.2859	1018.5509	1077.032	1096.9836	1112.7866	1136.4104	1229.3591	1250.7919	1279.765	1339.231	1381.1313	1409.149	1479.3955	1498.1829	1509.7435	1561.5546	1629.9932	3026.7394	3037.2257	3050.7902	3103.1019	3114.7715	3273.3915	3301.7449
CCC1=COC=N1	CCc1cocn1	
InChI=1S/C5H7NO/c1-2-5-3-7-4-6-5/h3-4H,2H2,1H3	InChI=1S/C5H7NO/c1-2-5-3-7-4-6-5/h3-4H,2H2,1H3
