14
gdb 4874	6.74009	1.22994	1.05361	3.4502	60.18	-0.1965	0.044	0.2404	1043.7849	0.108164	-415.888651	-415.880956	-415.880012	-415.92125	27.558	
O	 0.0148928419	 1.3707776197	 0.3564045871	-0.403719
C	 0.0090873583	-0.0000228404	-0.0022455507	-0.194537
C	-1.4093960791	-0.4616509661	-0.0238818638	 0.300653
C	-2.594065921	 0.2061188799	-0.1242102909	-0.156438
N	-3.6679136075	-0.6762119738	-0.1172916795	-0.363264
C	-3.1193654936	-1.8535520627	-0.0165421361	 0.439252
O	-3.746914347	-3.0424565221	 0.0288118413	-0.427397
N	-1.7629599024	-1.8095188792	 0.0456280004	-0.376235
H	 0.8745601987	 1.7338492198	 0.1255170792	 0.291529
H	 0.4824347491	-0.1482622526	-0.9885542021	 0.100796
H	 0.5895909881	-0.6073344607	 0.7161572359	 0.089465
H	-2.7399656423	 1.2716102809	-0.1903282719	 0.118958
H	-4.6907907104	-2.8469075387	-0.0260982048	 0.313856
H	-1.1514983228	-2.6017525738	 0.1455818158	 0.267081
39.2969	161.0639	195.7725	238.365	317.5444	365.7719	410.1	451.9251	491.3476	632.0668	681.0423	724.789	745.0215	842.6058	1001.3058	1034.597	1051.8681	1086.201	1148.4892	1190.9139	1227.3859	1230.25	1252.231	1299.6821	1390.1734	1474.9575	1519.0807	1555.2501	1606.9436	1646.9914	2930.8159	2946.7601	3275.0397	3670.9757	3804.944	3837.0311
OCC1=CN=C(O)N1	OCc1cnc(O)[nH]1	
InChI=1S/C4H6N2O2/c7-2-3-1-5-4(8)6-3/h1,7H,2H2,(H2,5,6,8)	InChI=1S/C4H6N2O2/c7-2-3-1-5-4(8)6-3/h1,7H,2H2,(H2,5,6,8)
