15
gdb 3170	5.89784	2.42902	2.02185	1.3594	64.2	-0.2095	0.0172	0.2267	671.8716	0.125467	-308.503515	-308.497387	-308.496443	-308.533442	23.577	
C	-0.1088135875	 1.4641081697	 0.0879948568	-0.324907
C	 1.2963670256	 0.9127887828	-0.0658409763	-0.324907
C	 0.1128173295	-0.0201587191	-0.0507562931	 0.44432
O	-0.0767074137	-0.8238197966	 1.0981296829	-0.307957
C	-0.6152391262	-2.0880145015	 0.7103355407	-0.128088
C	-0.7503901734	-2.0147758955	-0.7867218585	-0.110635
C	-0.3300489371	-0.82589377	-1.2083287431	-0.147293
H	-0.4010398007	 1.8117608384	 1.0725453204	 0.125433
H	-0.5540190904	 2.0059447197	-0.739915651	 0.111852
H	 1.8240518607	 1.0729144477	-1.000260127	 0.111852
H	 1.9242932464	 0.8994217892	 0.8179736427	 0.125434
H	 0.0602817357	-2.8952701869	 1.0350921194	 0.106192
H	-1.580834399	-2.2512901195	 1.2147423247	 0.10619
H	-1.1348873585	-2.826274595	-1.3903265544	 0.105197
H	-0.2983641915	-0.4610563934	-2.2265551942	 0.107316
85.7333	244.1459	299.3061	360.9638	534.9142	537.5135	727.2196	762.1749	784.1755	840.3413	881.8704	888.0163	919.0486	948.5627	949.9068	982.4845	1044.1585	1044.7478	1062.8939	1073.2948	1121.8333	1191.5351	1196.4513	1247.484	1305.4764	1383.837	1401.9339	1449.0512	1489.3967	1520.7573	1680.5826	2971.9835	2987.4437	3129.3544	3131.9161	3211.7616	3215.3924	3230.1598	3235.8347
C1CC11OCC=C1	C1CC21OCC=C2	
InChI=1S/C6H8O/c1-2-6(3-4-6)7-5-1/h1-2H,3-5H2	InChI=1S/C6H8O/c1-2-6(3-4-6)7-5-1/h1-2H,3-5H2
