14
gdb 3504	6.6433	2.11415	2.07202	3.8934	59.44	-0.2364	0.0137	0.2501	663.259	0.114443	-324.522792	-324.517031	-324.516087	-324.552413	21.698	
O	 0.1028381421	 0.0490498761	 0.4507483498	-0.315499
C	 0.0729266713	 1.2212166735	 0.1456603747	 0.128545
N	 1.0939118009	 1.9024440531	-0.4676676734	-0.068246
C	 2.5621975528	 1.6726224762	-0.2123312589	-0.013878
C	 2.8124106609	 2.9617631745	-1.0467610929	-0.212161
C	 1.6305401815	 3.2635883506	-0.0836386927	-0.033253
C	 2.4480136858	 2.5796825072	 1.0532731691	-0.219838
H	-0.8362138032	 1.8505107086	 0.245239778	 0.071051
H	 3.0095629128	 0.6866732452	-0.312972997	 0.114739
H	 3.7442340583	 3.4938456158	-0.8524120678	 0.106893
H	 2.5637832676	 2.9037235376	-2.1064417757	 0.115901
H	 0.9885411671	 4.1432453424	-0.0413449969	 0.099243
H	 1.8757927394	 2.1685006673	 1.8861673531	 0.122223
H	 3.3576899928	 3.087323982	 1.3842826207	 0.104279
120.8891	200.7671	295.8739	488.6934	565.1539	665.8317	752.3666	780.877	823.8179	891.8551	903.1105	958.3084	1005.9824	1009.9763	1033.9138	1074.1881	1091.8458	1119.0752	1126.9631	1187.7186	1193.5243	1226.4471	1253.1924	1255.5365	1347.5004	1417.5712	1482.5115	1521.4788	1787.5798	2915.1368	3063.3315	3085.7139	3124.4928	3142.9838	3156.3821	3164.0477
O=CN1C2CC1C2	O=CN1[C@H]2C[C@@H]1C2	
InChI=1S/C5H7NO/c7-3-6-4-1-5(6)2-4/h3-5H,1-2H2	InChI=1S/C5H7NO/c7-3-6-4-1-5(6)2-4/h3-5H,1-2H2/t4-,5+
