7
gdb 325	8.71899	2.49294	1.93864	1.4415	38.68	-0.2978	-0.1503	0.1475	551.5682	0.035739	-320.029854	-320.024005	-320.023061	-320.059734	18.042	
O	-0.0778584476	 0.0061914019	 0.0012399297	-0.181408
C	-0.0168409457	 1.1998604542	 0.0068937211	 0.085629
C	 1.3535897273	 1.9244098993	-0.0005511999	 0.246153
O	 2.4014142225	 1.3416108415	-0.0120739854	-0.217649
C	 1.2551732794	 3.3946973412	 0.0078618064	 0.207995
N	 1.1141053667	 4.5427521793	 0.0149400431	-0.269584
H	-0.9035942427	 1.8662530427	 0.017607225	 0.128865
85.8483	144.1601	264.4076	284.6554	509.8243	578.4528	590.1801	855.3645	1006.846	1053.2235	1396.5936	1802.538	1848.1898	2333.3385	2934.017
O=CC(=O)C#N	O=CC(=O)C#N	
InChI=1S/C3HNO2/c4-1-3(6)2-5/h2H	InChI=1S/C3HNO2/c4-1-3(6)2-5/h2H
