17
gdb 4052	5.58039	1.2433	1.07349	1.3624	76.6	-0.2181	-0.0255	0.1926	1100.6088	0.142203	-363.845008	-363.837114	-363.83617	-363.877567	29.562	
C	-0.1700869083	 1.5363651935	 0.0138541109	-0.396291
C	 0.0630396894	 0.0190890847	-0.0124476897	-0.0259
C	 0.9003858855	-0.4704277692	-1.2299583326	-0.315148
C	 1.9959566142	-1.3343022795	-0.6268729237	 0.375805
C	 1.9110359441	-1.2285178851	 0.8293907447	-0.152247
C	 0.8513484313	-0.4862156062	 1.1748164999	-0.066336
N	 2.8017242459	-2.0060617066	-1.3575179908	-0.238022
O	 3.7293139245	-2.7229861373	-0.5749700164	-0.398936
H	 0.7827090541	 2.0765852756	 0.0205211057	 0.121274
H	-0.7367373643	 1.8594354759	-0.8653725487	 0.119125
H	-0.7333529736	 1.8358988373	 0.9039944365	 0.114718
H	-0.9217679311	-0.4697770982	-0.0156885295	 0.089034
H	 0.3058205746	-1.0251461225	-1.9597337462	 0.123151
H	 1.3414088418	 0.3811544096	-1.7596941257	 0.122536
H	 2.6125906913	-1.7092469535	 1.4957521638	 0.120409
H	 0.5558620097	-0.2581037459	 2.1940847926	 0.102595
H	 4.253569131	-3.1695020626	-1.2473252906	 0.304232
40.3268	203.0929	232.3768	248.8605	267.3415	324.0082	371.333	436.6651	493.2918	620.6864	692.9619	730.2181	815.372	839.4182	866.4794	909.2546	934.0233	980.505	990.0096	1043.8258	1090.3353	1111.1111	1140.3023	1209.3149	1240.7057	1271.9952	1316.4455	1332.9986	1372.0762	1400.625	1410.5267	1475.8233	1496.8402	1499.5449	1646.9327	1726.6974	2997.1369	3029.5052	3048.8143	3098.4364	3102.0169	3103.4768	3184.4093	3247.6064	3826.1902
CC1CC(C=C1)=NO	C[C@H]1CC(=NO)C=C1	
InChI=1S/C6H9NO/c1-5-2-3-6(4-5)7-8/h2-3,5,8H,4H2,1H3	InChI=1S/C6H9NO/c1-5-2-3-6(4-5)7-8/h2-3,5,8H,4H2,1H3/t5-/m1/s1
