14
gdb 4303	3.98017	1.9887	1.337	2.3981	67.86	-0.2318	-0.0501	0.1817	873.3873	0.109894	-374.957655	-374.950795	-374.949851	-374.988858	25.285	
C	-0.0100793095	 1.4769806313	 0.0013505589	-0.455018
C	-0.0297780258	-0.0214001282	 0.0118399886	 0.341705
N	-1.1679086208	-0.6353156771	-0.1197709281	-0.320979
C	-1.1882125413	-2.025199628	-0.1102674045	 0.407543
N	-2.202587618	-2.7855442033	-0.2257046822	-0.562335
N	 0.0749253487	-2.6372887595	 0.0468692089	-0.285173
C	 1.1955185859	-1.9084344654	 0.1753972294	 0.112196
N	 1.2193294547	-0.6123926028	 0.1671482732	-0.317523
H	 0.6365341097	 1.8316305128	-0.8081886168	 0.145337
H	-1.0167300951	 1.8744160221	-0.1227062115	 0.140809
H	 0.4276654365	 1.8465535036	 0.9346481865	 0.145331
H	-3.0339455307	-2.2062415804	-0.3306519255	 0.227059
H	 0.089109197	-3.6473247062	 0.0572417884	 0.278483
H	 2.1218432986	-2.467749859	 0.2915975146	 0.142565
116.4183	133.6218	195.1258	318.9804	408.8567	479.2107	552.7359	581.871	607.1272	712.5081	780.0636	785.5146	861.4209	912.7751	971.9242	991.6726	1022.4546	1065.6734	1123.6691	1179.18	1266.2667	1347.4007	1397.0803	1414.8301	1459.8311	1472.566	1484.7459	1579.7268	1675.6006	1742.631	3045.6107	3101.7485	3158.2303	3164.2833	3513.6787	3613.0384
CC1=NC(=N)NC=N1	C[C@@H]1N=C([NH])NC=N1	
InChI=1S/C4H6N4/c1-3-6-2-7-4(5)8-3/h2H,1H3,(H2,5,6,7,8)	InChI=1S/C4H7N4/c1-3-6-2-7-4(5)8-3/h2-3,5H,1H3,(H,6,7,8)/t3-/m0/s1
