15
gdb 2210	4.49993	2.30686	1.82287	2.9727	52.36	-0.2465	0.0533	0.2998	704.5716	0.124777	-382.768883	-382.761817	-382.760873	-382.799769	26.684	
O	 0.5589898337	 0.8421422607	-0.8097270668	-0.436225
C	 0.1044757307	-0.2461361521	-0.065454482	 0.154357
C	 0.1185950491	-0.1485116382	 1.4953310141	-0.318362
C	-1.3061169659	-0.7589950753	 1.5036820705	 0.098128
O	-2.315955495	-0.1201598325	 2.2668066915	-0.441423
C	-1.444317825	-0.4284120618	-0.0086966581	 0.070076
O	-2.0640263855	 0.8281422436	-0.198725113	-0.452711
H	-0.1706955403	 1.4792925902	-0.7883005893	 0.288306
H	 0.6176320516	-1.144300046	-0.421099412	 0.084555
H	 0.9044011164	-0.6764084229	 2.039347804	 0.103678
H	 0.1003283146	 0.9002723971	 1.806542394	 0.103305
H	-1.303390161	-1.8391194301	 1.6924606214	 0.080937
H	-1.9467760377	 0.129509223	 3.1192178114	 0.296031
H	-1.901865885	-1.1811695623	-0.6594028052	 0.072349
H	-2.5275077707	 1.0202494266	 0.6306879194	 0.297
82.5597	206.7458	262.142	292.6697	385.4879	411.3587	453.6076	521.1483	563.9932	635.1012	688.8263	784.4057	870.2479	897.2626	946.8415	1044.6836	1061.3763	1112.4212	1126.1677	1164.7748	1187.3694	1224.3825	1245.913	1265.9675	1323.9882	1351.1872	1360.3014	1382.1732	1404.7504	1451.5497	1471.4413	3029.4531	3046.497	3059.1728	3071.2396	3124.0201	3706.4016	3722.0414	3831.104
OC1CC(O)C1O	O[C@H]1C[C@@H](O)[C@H]1O	
InChI=1S/C4H8O3/c5-2-1-3(6)4(2)7/h2-7H,1H2	InChI=1S/C4H8O3/c5-2-1-3(6)4(2)7/h2-7H,1H2/t2-,3+,4-
