15
gdb 3258	3.68971	3.68083	2.01651	0.2872	70.89	-0.214	-0.029	0.185	652.0585	0.127757	-271.401725	-271.395977	-271.395033	-271.430862	22.895	
C	-0.0359538222	 1.5106656441	-0.0562471133	-0.30023
C	 1.3838135422	 2.0177711712	-0.0255606176	-0.079021
C	 2.1806961238	 1.8420148826	 1.045787078	-0.050579
C	 1.8709749229	 1.0293514586	 2.1984994753	-0.098003
C	 1.1007544774	-0.0925330778	 2.1997599931	-0.098003
C	 0.4524388398	-0.6753257022	 1.0486153036	-0.050579
C	 0.0009714507	 0.0035534189	-0.0232982067	-0.079021
H	-0.5774379432	 1.8834060894	 0.8247193226	 0.118056
H	-0.561262656	 1.8703149996	-0.9439518375	 0.099832
H	 1.760479405	 2.5525163371	-0.8933164274	 0.092347
H	 3.1549458803	 2.3269721035	 1.0514074609	 0.088337
H	 2.4046109988	 1.2685119632	 3.1158208797	 0.08809
H	 1.0702655272	-0.6750623885	 3.1180049394	 0.08809
H	 0.3499287099	-1.758753041	 1.0559979876	 0.088337
H	-0.3636327668	-0.5414213087	-0.8898407475	 0.092347
207.1111	296.1412	353.8477	416.5182	433.0856	613.2134	666.9402	729.9433	771.3319	822.8834	888.4917	924.0645	939.9225	961.3985	977.8964	986.5517	1006.4074	1036.5973	1070.1593	1206.6871	1224.4125	1246.1103	1270.4263	1326.1735	1383.4045	1424.9935	1474.6799	1475.342	1581.3591	1670.1665	1674.6186	3000.6651	3095.5127	3133.0467	3139.2486	3146.2192	3161.1391	3169.0555	3173.2846
C1C=CC=CC=C1	C1C=CC=CC=C1	
InChI=1S/C7H8/c1-2-4-6-7-5-3-1/h1-6H,7H2	InChI=1S/C7H8/c1-2-4-6-7-5-3-1/h1-6H,7H2
