15
gdb 136	17.9608	2.23958	2.09578	0.9301	50.62	-0.2483	0.0931	0.3414	631.0818	0.136152	-233.547877	-233.541027	-233.540083	-233.578016	22.881	
C	-0.0012737517	 1.5094277447	-0.0211485267	-0.3833
C	 0.0147244892	-0.0099687199	-0.0183230714	-0.025087
O	 0.6755517762	-0.4570760148	-1.18252294	-0.23789
C	 0.7456806182	-1.8633471222	-1.2796926072	-0.025087
C	 1.4737587703	-2.2266221263	-2.5629553862	-0.3833
H	 1.0189165155	 1.9034690659	-0.0357229644	 0.125492
H	-0.5253354653	 1.8857148044	-0.904341089	 0.125476
H	-0.5078406361	 1.8881254104	 0.8717132268	 0.112394
H	 0.5288009804	-0.3893126266	 0.8820261226	 0.08199
H	-1.0148650879	-0.4071864601	 0.0126735209	 0.081981
H	 1.2735761704	-2.2806865481	-0.4045059103	 0.08198
H	-0.2693699588	-2.2974629662	-1.2751576379	 0.08199
H	 0.9423327498	-1.827177375	-3.4314584209	 0.125489
H	 2.4853744383	-1.8108190206	-2.5606646287	 0.125479
H	 1.5444880114	-3.3134572756	-2.6678888976	 0.112394
105.3281	106.0045	191.8553	245.0255	248.9744	428.8995	441.1658	816.9017	827.5121	857.9229	945.4407	1057.1793	1094.2211	1167.1935	1173.8639	1179.6758	1206.0033	1292.3701	1298.9145	1383.6109	1403.0833	1410.8163	1453.2528	1483.6823	1483.748	1498.1935	1501.1899	1518.942	1541.3092	2940.924	2954.6578	2968.847	2970.6675	3044.0609	3044.485	3118.1313	3118.3876	3120.5433	3120.7349
CCOCC	CCOCC	
InChI=1S/C4H10O/c1-3-5-4-2/h3-4H2,1-2H3	InChI=1S/C4H10O/c1-3-5-4-2/h3-4H2,1-2H3
