16
gdb 3032	10.5165	1.14027	1.10433	1.2041	67.34	-0.2382	0.0571	0.2953	1058.3143	0.135577	-288.572843	-288.565246	-288.564302	-288.604811	27.406	
C	-0.0653962367	-1.1827045699	 0.0227013526	-0.44758
C	-0.0127284962	 0.0160380334	 0.0940917829	 0.297252
C	 0.0867212717	 1.467452011	 0.1682786383	-0.346618
C	 1.4765913427	 1.9842729212	-0.2435005724	-0.134855
N	 1.5060621775	 3.4388562488	-0.1761333625	-0.05828
C	 1.9163128276	 4.0173613687	 1.1014864079	-0.222586
C	 2.8259908237	 4.0501714341	-0.0763992675	-0.222932
H	-0.1265559978	-2.2408894314	-0.0370040935	 0.194044
H	-0.6655576086	 1.9348974683	-0.4776661232	 0.141736
H	-0.1328951033	 1.8036837673	 1.189635999	 0.130966
H	 2.2458293515	 1.5153392886	 0.3950674615	 0.091396
H	 1.6847236618	 1.6831665205	-1.2757072725	 0.116865
H	 1.3806977501	 4.9094480905	 1.4124637096	 0.118944
H	 2.177959619	 3.3357120694	 1.9099551314	 0.110964
H	 3.6925601207	 3.3910788663	-0.0514485314	 0.111662
H	 2.9665725364	 4.9663587532	-0.6426014602	 0.119023
73.6822	110.8324	126.7782	257.255	341.033	372.9952	438.0981	504.593	618.4999	641.8969	772.7526	788.449	842.1266	895.1646	974.7946	1013.6626	1032.5168	1059.3919	1086.1774	1113.8586	1119.4063	1169.5919	1180.0206	1243.1755	1300.429	1312.007	1324.3363	1395.7993	1473.7758	1488.696	1499.228	1521.3696	2239.917	2949.6322	3027.8116	3059.4305	3076.6477	3091.6918	3097.0832	3177.5504	3191.6978	3507.7001
C#CCCN1CC1	C#CCCN1CC1	
InChI=1S/C6H9N/c1-2-3-4-7-5-6-7/h1H,3-6H2	InChI=1S/C6H9N/c1-2-3-4-7-5-6-7/h1H,3-6H2
