12
gdb 2122	3.74569	3.29525	1.79337	5.8034	51.44	-0.2353	-0.0628	0.1725	653.6291	0.091335	-360.566272	-360.560021	-360.559077	-360.597466	21.816	
O	-0.0098387262	 0.0009976593	 0.1204298787	-0.277221
C	-0.0295015322	 1.1975110601	 0.051237196	 0.320236
C	-1.2526737709	 2.1063469981	 0.0099624194	-0.33678
C	-0.6967329106	 3.5461532746	 0.056344265	-0.170458
N	 0.7476166095	 3.3745119102	-0.0372956606	-0.308608
C	 1.2260978594	 2.097120275	-0.0162399711	 0.302928
O	 2.3788747391	 1.7366475674	-0.0449657246	-0.348692
H	-1.8056953753	 1.9095924812	-0.9134997425	 0.153621
H	-1.9237070551	 1.878418559	 0.8411597656	 0.150921
H	-1.0698272354	 4.1578423576	-0.7718487768	 0.125703
H	-0.9703740542	 4.0531772005	 0.9891514445	 0.12591
H	 1.3839933618	 4.1563429071	-0.0549654136	 0.262441
33.0046	133.7629	321.4205	371.0035	534.5752	562.3367	618.8142	665.7549	710.5892	738.5592	849.1312	958.9134	1042.4203	1069.206	1094.2724	1196.8339	1239.1894	1257.7562	1283.2486	1352.4551	1443.6408	1459.0408	1536.6871	1840.9969	1866.8791	3028.4278	3060.1676	3070.9884	3117.6704	3633.6896
O=C1CCNC1=O	O=C1CCNC1=O	
InChI=1S/C4H5NO2/c6-3-1-2-5-4(3)7/h1-2H2,(H,5,7)	InChI=1S/C4H5NO2/c6-3-1-2-5-4(3)7/h1-2H2,(H,5,7)
