13
gdb 270	9.17009	1.86544	1.58189	2.1536	46.39	-0.2471	0.0327	0.2798	722.9054	0.106736	-323.657279	-323.649644	-323.6487	-323.69021	25.021	
N	-0.0814565532	 1.3226471749	-0.072854988	-0.523169
C	 0.0638412886	-0.0316918308	 0.0329434722	 0.408489
O	 1.1553824761	-0.5634424322	 0.1106516023	-0.358863
C	-1.2447446452	-0.8130405607	 0.0359331536	-0.297885
C	-1.0140346071	-2.3160908716	-0.0212035569	-0.068037
O	-2.2922825756	-2.9358334184	 0.0146725414	-0.427866
H	 0.743375351	 1.8955208094	-0.0027059243	 0.25975
H	-0.982030006	 1.7678212485	-0.0537382349	 0.257832
H	-1.8108192169	-0.5677577646	 0.9435128057	 0.129463
H	-1.8702574351	-0.5011055721	-0.8088475205	 0.124357
H	-0.4638693284	-2.5703415265	-0.9382325185	 0.101621
H	-0.3856099468	-2.621568831	 0.8258234784	 0.107421
H	-2.1599065215	-3.887793455	-0.0063180706	 0.286887
19.1302	98.0134	140.0665	184.1213	269.6818	366.9631	437.6516	507.1806	617.1639	640.0427	814.188	863.3027	1034.5562	1064.8266	1083.0823	1098.9116	1208.1035	1233.7386	1286.8724	1306.0597	1392.6984	1457.4976	1474.9615	1523.4588	1617.4315	1793.5709	3001.116	3033.117	3034.3014	3074.7103	3602.5111	3738.9822	3833.6374
NC(=O)CCO	NC(=O)CCO	
InChI=1S/C3H7NO2/c4-3(6)1-2-5/h5H,1-2H2,(H2,4,6)	InChI=1S/C3H7NO2/c4-3(6)1-2-5/h5H,1-2H2,(H2,4,6)
