12
gdb 2823	4.75103	2.0913	1.6523	3.0232	58.05	-0.2592	-0.0082	0.251	729.5581	0.088581	-323.32829	-323.321469	-323.320525	-323.359242	23.984	
O	 0.1043727433	 0.2798909234	-0.5245658342	-0.2788
C	 0.1392847619	 1.4206682713	-0.1406098671	 0.151817
N	 1.2103049322	 1.9858325507	 0.5448988134	-0.068427
C	 2.5846593537	 1.790948423	 0.1681721289	-0.230745
C	 1.9525144339	 3.1655296945	 0.0983566045	-0.200151
C	 1.6657045874	 3.763957106	-1.1767460966	 0.337213
C	 1.4139085898	 4.284681699	-2.2305228632	-0.440185
H	-0.7080167928	 2.1248338948	-0.2249781175	 0.097689
H	 3.279851247	 1.576780761	 0.9747661922	 0.136627
H	 2.7729475234	 1.2778150076	-0.7703704956	 0.15135
H	 2.1858716139	 3.8676268322	 0.8956128171	 0.131413
H	 1.1966780263	 4.7365411364	-3.1671463719	 0.212197
88.6077	169.5052	188.4241	265.026	323.5595	511.1362	542.7703	621.6442	654.2741	679.3049	783.8577	870.6388	950.1561	1030.3195	1044.2051	1078.1599	1124.4287	1130.5941	1164.9259	1357.6766	1391.334	1416.3121	1503.3438	1807.5719	2240.6788	2977.5033	3118.0248	3133.7899	3213.6801	3501.2572
O=CN1CC1C#C	O=CN1C[C@H]1C#C	
InChI=1S/C5H5NO/c1-2-5-3-6(5)4-7/h1,4-5H,3H2	InChI=1S/C5H5NO/c1-2-5-3-6(5)4-7/h1,4-5H,3H2/t5-,6?/m1/s1
