16
gdb 2846	4.36248	1.87604	1.49737	3.6373	62.48	-0.2495	0.0036	0.2531	845.9068	0.136034	-325.774769	-325.767214	-325.766269	-325.80665	26.609	
C	-0.0930197976	 1.363011865	 0.4293813657	-0.382569
C	-0.0930247074	-0.130789224	 0.0834280734	-0.201119
C	-1.4741708205	-0.6840111086	-0.1967275885	 0.009767
C	-1.7707472614	-2.147183161	-0.0167818147	-0.253093
N	-2.3324313605	-1.1645217074	 0.8790026282	-0.061123
C	-2.0892447465	-1.1199044267	 2.2380000304	 0.134366
O	-1.9896762076	-2.0858701516	 2.9559437775	-0.291199
H	 0.9272190644	 1.7308343264	 0.5715162192	 0.122664
H	-0.5524049337	 1.9526035576	-0.3711796918	 0.12174
H	-0.6513447117	 1.561858456	 1.3496606923	 0.125356
H	 0.5225666245	-0.2975575425	-0.8097166767	 0.112155
H	 0.3692630139	-0.7088378518	 0.8927724064	 0.114525
H	-2.0199111415	-0.1610069931	-0.9823641118	 0.100798
H	-2.4713642421	-2.645754717	-0.6807586997	 0.127584
H	-0.9829382514	-2.7799720147	 0.385168678	 0.136216
H	-2.073234321	-0.0804901964	 2.6181682421	 0.083932
92.8396	111.61	197.543	208.9365	243.2666	321.2882	413.3845	490.1535	618.7458	762.402	809.2297	861.4503	948.0611	965.0651	1029.3844	1039.7484	1068.4418	1118.2803	1126.8759	1143.8789	1160.9394	1197.3094	1290.2351	1342.3159	1379.8602	1414.548	1420.5185	1436.3638	1477.738	1500.8396	1504.8167	1511.9903	1794.9336	2949.9241	3025.2121	3037.8335	3061.1453	3103.5479	3109.331	3110.9915	3113.1089	3197.8458
CCC1CN1C=O	CC[C@H]1CN1C=O	
InChI=1S/C5H9NO/c1-2-5-3-6(5)4-7/h4-5H,2-3H2,1H3	InChI=1S/C5H9NO/c1-2-5-3-6(5)4-7/h4-5H,2-3H2,1H3/t5-,6?/m0/s1
