6
gdb 323	6.73683	2.93617	2.04492	0.6341	39.71	-0.3538	-0.1562	0.1977	520.8737	0.02554	-298.95295	-298.94752	-298.946576	-298.982096	16.955	
O	 0.0029355305	-0.0651970155	 0.0027724031	-0.212858
C	-0.0133825672	 1.13617766	 0.0066838599	 0.259542
C	 1.2043551853	 1.9484701259	 0.0005879903	 0.256163
N	 2.1698535337	 2.5842697159	-0.0042705309	-0.279505
C	-1.2527321226	 1.9150408255	 0.0179336562	 0.256163
N	-2.2351431619	 2.5243365681	 0.0268262514	-0.279505
131.7703	231.0879	260.5594	336.038	558.3699	595.7818	729.8089	770.5972	1123.3362	1779.3619	2344.5929	2349.5122
O=C(C#N)C#N	O=C(C#N)C#N	
InChI=1S/C3N2O/c4-1-3(6)2-5	InChI=1S/C3N2O/c4-1-3(6)2-5
