12
gdb 4281	4.04719	2.03472	1.35594	8.9868	58.96	-0.2391	-0.0278	0.2113	820.7026	0.086555	-410.903012	-410.896395	-410.89545	-410.934076	24.472	
N	 0.0318441056	 1.3679174822	 0.1309488068	-0.571105
C	-0.0168260327	 0.0002317497	 0.0331073649	 0.472992
N	-1.140854566	-0.6268464389	 0.0057674927	-0.354213
C	-1.1442520546	-2.0341711976	-0.0040001833	 0.37614
O	-2.1735631028	-2.6593622645	 0.0223391484	-0.337845
N	 0.110421659	-2.7268714661	-0.0602284429	-0.281993
C	 1.1758277004	-2.0293278753	-0.0360621561	 0.093906
N	 1.1994111956	-0.6518823368	 0.0147930516	-0.342703
H	 0.7941355304	 1.848256581	-0.3233892025	 0.258017
H	-0.8725027895	 1.7967951863	-0.0053607175	 0.279652
H	 2.1570637548	-2.5023617382	-0.0600099713	 0.137795
H	 2.0677734097	-0.1556896417	 0.1365101192	 0.269357
69.4306	197.2992	337.2997	360.8089	408.0795	509.2698	544.0922	563.7549	580.2724	595.9585	745.9765	783.9112	826.6805	916.3461	970.3878	991.1637	1052.2978	1153.7376	1243.2117	1368.273	1415.5641	1494.8597	1615.5396	1662.7273	1736.3994	1821.571	3139.6968	3569.7623	3636.7109	3682.0292
NC1=NC(=O)N=CN1	Nc1nc(=O)nc[nH]1	
InChI=1S/C3H4N4O/c4-2-5-1-6-3(8)7-2/h1H,(H3,4,5,6,7,8)	InChI=1S/C3H4N4O/c4-2-5-1-6-3(8)7-2/h1H,(H3,4,5,6,7,8)
