7
gdb 109	21.0592	2.92609	2.61064	3.6958	36.12	-0.3494	-0.0151	0.3344	429.0927	0.044642	-224.94466	-224.939832	-224.938888	-224.972334	15.259	
N	-0.0588543735	-1.1708518761	-0.0037222375	-0.274781
C	-0.012816536	-0.0181007567	 0.0021770507	 0.28779
C	 0.0120243879	 1.4472360505	 0.0097236088	-0.445447
C	 1.3709445795	 1.9959873418	-0.0003009637	 0.287833
N	 2.4302450877	 2.4529451338	-0.0079547175	-0.274801
H	-0.534209601	 1.8214094564	-0.8640736576	 0.209706
H	-0.5174253046	 1.8120306503	 0.8977007868	 0.209699
148.7269	351.4858	380.7194	385.2761	586.1028	900.2322	940.0258	988.007	1238.2184	1337.8576	1441.4556	2378.5944	2384.912	3048.077	3085.7261
N#CCC#N	N#CCC#N	
InChI=1S/C3H2N2/c4-2-1-3-5/h1H2	InChI=1S/C3H2N2/c4-2-1-3-5/h1H2
