16
gdb 4948	5.36665	1.30548	1.13181	3.1944	67.16	-0.1959	0.0328	0.2287	1053.5823	0.131912	-379.963487	-379.95582	-379.954876	-379.995848	28.254	
C	 0.0396444547	 1.5301405142	-0.0998752717	-0.371455
C	-0.0243282321	 0.0160612752	 0.113373624	-0.157887
N	-1.3746213484	-0.5160422337	 0.0321729647	 0.030983
C	-2.1403353725	-0.9427872494	 1.0653125147	 0.002018
N	-3.3416912645	-1.3288084157	 0.6738119314	-0.361723
C	-3.3456308675	-1.1365878481	-0.6760537266	 0.343586
O	-4.4292272941	-1.4328823697	-1.4276989187	-0.436576
C	-2.1476387243	-0.6326304248	-1.1161629265	-0.236885
H	 1.0744776701	 1.8771516513	-0.0221463816	 0.122864
H	-0.3390414989	 1.8047869206	-1.0881712195	 0.134028
H	-0.5593898556	 2.0528688966	 0.6511300813	 0.133437
H	 0.5993534667	-0.4998806222	-0.6251589236	 0.124917
H	 0.3657013885	-0.2464259654	 1.1012403728	 0.123207
H	-1.773766739	-0.9564460967	 2.0810650624	 0.126002
H	-5.0932222792	-1.7700121402	-0.8141027977	 0.29888
H	-1.781852594	-0.366663912	-2.0919450354	 0.124605
59.1303	111.5403	207.369	290.8454	321.9245	378.5272	418.8151	459.0659	605.2942	646.3718	651.33	729.4994	753.096	796.7829	797.5828	962.9118	1014.0008	1052.7508	1096.7818	1123.8824	1163.1302	1216.1624	1272.6556	1283.2454	1368.7318	1393.1878	1408.7821	1412.97	1460.8183	1484.9858	1490.4707	1506.8361	1543.3536	1656.4296	3043.6248	3045.2278	3089.5158	3119.5821	3127.228	3246.5594	3288.3354	3803.5245
CCN1C=NC(O)=C1	CCn1cnc(O)c1	
InChI=1S/C5H8N2O/c1-2-7-3-5(8)6-4-7/h3-4,8H,2H2,1H3	InChI=1S/C5H8N2O/c1-2-7-3-5(8)6-4-7/h3-4,8H,2H2,1H3
