15
gdb 4508	3.59519	1.78141	1.2078	1.7631	64.62	-0.1857	0.0392	0.2249	963.2841	0.119755	-396.023448	-396.015148	-396.014204	-396.056457	29.707	
C	 0.018336318	 1.457165617	-0.0064379956	-0.496294
C	 0.0317007552	-0.0347115981	-0.0165020845	 0.336477
N	 0.0120813786	-0.7957386942	-1.1021885537	-0.380097
C	 0.0348594346	-2.0821070777	-0.6502611236	 0.29249
O	 0.0237196247	-3.1381703448	-1.500558393	-0.446749
C	 0.0689013227	-2.1423461448	 0.7200448783	 0.14303
N	 0.1018494497	-3.1687058115	 1.6834557589	-0.619841
N	 0.0659818006	-0.7996930319	 1.1019483908	-0.292244
H	 0.9106201821	 1.8725121558	 0.4766319214	 0.13008
H	-0.0098504591	 1.8117727066	-1.0376255369	 0.153591
H	-0.8569719803	 1.8563892905	 0.5193934505	 0.130088
H	-0.001383414	-2.7620038597	-2.388492816	 0.297034
H	 0.9210530527	-3.7586889893	 1.5785967684	 0.246161
H	-0.710773255	-3.7733826862	 1.6187748362	 0.246156
H	 0.0865744894	-0.4901009019	 2.0594972888	 0.260117
51.0756	119.4338	178.9138	262.8832	263.9334	281.2738	356.6374	367.8203	526.1951	526.6215	618.6905	669.1786	675.0636	732.7387	784.7518	848.1315	997.7408	1044.0388	1059.1698	1147.2489	1213.8825	1215.4381	1268.3305	1360.3443	1409.3721	1444.0747	1461.6402	1482.1729	1510.0073	1561.7535	1660.9431	1698.4966	3027.1934	3074.8222	3145.6522	3496.5614	3555.9677	3661.9044	3806.4398
CC1=NC(O)=C(N)N1	Cc1nc(O)c(N)[nH]1	
InChI=1S/C4H7N3O/c1-2-6-3(5)4(8)7-2/h8H,5H2,1H3,(H,6,7)	InChI=1S/C4H7N3O/c1-2-6-3(5)4(8)7-2/h8H,5H2,1H3,(H,6,7)
