14
gdb 2624	19.33662	0.93285	0.89991	2.9254	62.44	-0.2664	0.0171	0.2835	1200.4852	0.11136	-324.536694	-324.528545	-324.527601	-324.570703	26.96	
N	-0.1055366421	 1.3071217768	 0.0092897253	-0.435565
C	-0.044308017	 0.0470201829	 0.0021751714	 0.129078
O	-1.1775517682	-0.6820394047	 0.0089989362	-0.1811
C	-1.0161251306	-2.0989183803	-2.2967*^-6	-0.068414
C	-2.42069114	-2.7067395993	 0.0104233156	-0.347454
C	-2.3782949335	-4.1625578291	 0.0022552329	 0.281892
C	-2.3112048167	-5.3621491686	-0.0048152509	-0.440515
H	 0.8336568944	 1.6994939699	 0.0025574296	 0.230516
H	 0.8703463053	-0.5624684652	-0.0095397393	 0.086753
H	-0.4706599182	-2.4189059531	-0.8965270702	 0.12203
H	-0.4534145668	-2.4282426011	 0.8823716159	 0.122024
H	-2.9545539633	-2.343159174	 0.8960955337	 0.149792
H	-2.9716356461	-2.3337975822	-0.8607778669	 0.149799
H	-2.2698392573	-6.4232158119	-0.0108659466	 0.201163
21.6201	66.8157	107.2555	140.552	235.7065	353.7926	391.2132	482.346	629.2253	648.4147	658.2504	793.463	823.7698	960.5414	1014.9539	1044.683	1071.7685	1086.402	1143.2991	1227.0451	1287.9589	1307.7655	1316.2665	1407.0863	1431.3341	1477.1855	1518.3491	1750.682	2244.0178	3009.8231	3024.4951	3039.8818	3056.9062	3082.7404	3506.3911	3519.5675
N=COCCC#C	[NH][CH]OCCC#C	
InChI=1S/C5H7NO/c1-2-3-4-7-5-6/h1,5-6H,3-4H2	InChI=1S/C5H7NO/c1-2-3-4-7-5-6/h1,5-6H,3-4H2
