16
gdb 4496	3.64267	1.68409	1.16712	0.8037	68.84	-0.1731	0.0542	0.2273	1003.1941	0.130511	-379.952367	-379.943554	-379.942609	-379.985664	31.5	
C	 0.0099593807	 1.493090213	 0.0477533155	-0.501896
C	 0.0262261162	 0.0024387315	-0.0352670461	 0.327804
C	 0.008205134	-0.8353097138	-1.1358388449	-0.37128
C	 0.0372180418	-2.1725281947	-0.6527036734	 0.279093
O	 0.0332091121	-3.3416052716	-1.3673189111	-0.458484
C	 0.0721846665	-2.1336582149	 0.723674574	 0.158932
N	 0.1101968276	-3.1281747085	 1.7261364772	-0.616384
N	 0.0646749106	-0.7932242183	 1.0752248516	-0.310755
H	 0.9016670743	 1.8916998271	 0.5483026875	 0.124424
H	-0.021163874	 1.9209295975	-0.9571224039	 0.13307
H	-0.864407943	 1.8698976699	 0.5937203325	 0.124426
H	-0.0223444971	-0.5168691809	-2.168313804	 0.080005
H	 0.0069057893	-3.1219594616	-2.3023759069	 0.293213
H	 0.9292848504	-3.7208506345	 1.6286258074	 0.242395
H	-0.6973584338	-3.7416292673	 1.6696191173	 0.242414
H	 0.0854479643	-0.4844214529	 2.0320334572	 0.253023
83.8811	92.773	174.9352	189.396	253.5278	259.2745	271.4506	333.5915	460.7877	504.6774	591.4802	644.4661	661.4247	683.1775	746.743	795.1448	847.4999	1001.3354	1019.9511	1059.1313	1115.9267	1179.5148	1214.438	1245.1182	1282.7844	1351.9098	1417.3808	1445.3899	1479.8868	1503.3429	1508.2439	1555.5007	1658.2561	1685.6701	3013.2087	3055.5815	3118.8221	3225.5254	3487.5681	3543.7772	3675.6319	3849.5957
CC1=CC(O)=C(N)N1	Cc1cc(O)c(N)[nH]1	
InChI=1S/C5H8N2O/c1-3-2-4(8)5(6)7-3/h2,7-8H,6H2,1H3	InChI=1S/C5H8N2O/c1-3-2-4(8)5(6)7-3/h2,7-8H,6H2,1H3
