15
gdb 2192	3.84376	2.57461	1.76901	4.1896	56.78	-0.2678	0.0133	0.281	732.6435	0.124405	-345.693035	-345.685824	-345.68488	-345.724222	25.78	
C	-0.2785416861	 1.518827101	-0.0888348188	-0.401804
C	 0.0737076368	 0.0500765815	-0.007944792	 0.137701
O	 1.2912528437	-0.2581132557	-0.7813864029	-0.257808
C	 1.9435844364	-0.7274565454	 0.3287682591	 0.452241
O	 3.0617261012	-1.1266572343	 0.4017327017	-0.327353
C	 0.752676315	-0.5182302365	 1.2683192773	-0.201613
C	 0.9807655336	 0.3492056013	 2.5001977928	-0.411638
H	 0.5513119517	 2.1490186388	 0.2409207353	 0.132141
H	-0.5228504345	 1.7898597773	-1.1198914464	 0.138387
H	-1.1513450166	 1.7350150799	 0.5359501573	 0.126652
H	-0.7450623377	-0.5715203268	-0.3814841163	 0.097515
H	 0.325323161	-1.4823154179	 1.5612013018	 0.11472
H	 1.4302486422	 1.3130352839	 2.2480162214	 0.131173
H	 0.040941159	 0.5363536152	 3.0284709234	 0.125336
H	 1.6598445743	-0.1619871024	 3.1883310263	 0.144348
95.583	190.701	202.1435	221.0155	254.9023	358.6641	472.1938	530.9296	679.0578	745.3271	776.3317	836.0046	866.8263	1002.548	1046.1136	1050.3508	1072.0708	1134.4991	1168.7915	1175.3856	1237.133	1317.6766	1352.5558	1383.4354	1411.3657	1415.6099	1479.9852	1489.7663	1499.301	1504.0198	1932.431	3042.1748	3046.6895	3061.1016	3074.8582	3113.5031	3116.2489	3120.8685	3129.4659
CC1OC(=O)C1C	C[C@H]1OC(=O)[C@H]1C	
InChI=1S/C5H8O2/c1-3-4(2)7-5(3)6/h3-4H,1-2H3	InChI=1S/C5H8O2/c1-3-4(2)7-5(3)6/h3-4H,1-2H3/t3-,4+/m0/s1
