19
gdb 1791	3.66715	2.05514	1.64751	1.7245	67.69	-0.2541	0.0902	0.3443	864.8125	0.169253	-310.917344	-310.908691	-310.907746	-310.950074	31.318	
C	 0.083335701	 1.3992410879	-0.4644510246	-0.37721
C	-0.0516732634	 0.1445406965	 0.4097206262	-0.250874
C	-1.411382885	-0.523060807	 0.2786269326	 0.407638
C	-2.5697175717	 0.2240103503	 0.9115331153	-0.458978
O	-1.7042198202	-1.0607905017	-1.0269899686	-0.303067
C	-1.5584658527	-1.9783058319	 0.064510789	 0.027429
C	-0.4427446841	-2.9886885009	-0.0183173768	-0.425388
H	 1.0917120144	 1.8166871175	-0.3886239275	 0.110965
H	-0.1071161401	 1.1513680252	-1.5126472746	 0.135313
H	-0.6206600323	 2.1836397803	-0.1699063292	 0.116158
H	 0.7366796795	-0.5612759333	 0.1367028544	 0.100327
H	 0.1108604609	 0.4017715593	 1.4642517335	 0.095899
H	-2.6656994642	 1.2308053793	 0.4930807601	 0.126237
H	-3.5099320998	-0.3037481912	 0.7341797089	 0.124751
H	-2.4236296485	 0.3233200765	 1.9928365802	 0.116626
H	-2.5087204447	-2.4087690044	 0.3929149709	 0.077206
H	 0.4861855821	-2.5483616274	-0.3845102538	 0.128746
H	-0.2572011585	-3.4376153179	 0.9637858972	 0.119811
H	-0.7223225626	-3.7948959469	-0.7050527432	 0.12841
61.7504	147.4934	174.1845	215.156	219.8004	251.208	286.3889	370.3848	449.9187	475.7994	533.8008	686.0341	760.9489	787.4108	890.4058	929.1577	989.0367	1003.9743	1019.6474	1057.2473	1103.7549	1132.9361	1137.2644	1181.185	1252.394	1303.9007	1337.3893	1384.0441	1404.6065	1408.4025	1412.352	1460.7447	1477.1389	1482.9792	1490.9023	1495.6134	1504.5159	1508.333	1517.8689	3030.6726	3036.9115	3038.0371	3042.3644	3064.7374	3087.5006	3096.4138	3101.112	3110.9093	3119.3546	3123.0346	3136.4193
CCC1(C)OC1C	CC[C@@]1(C)O[C@H]1C	
InChI=1S/C6H12O/c1-4-6(3)5(2)7-6/h5H,4H2,1-3H3	InChI=1S/C6H12O/c1-4-6(3)5(2)7-6/h5H,4H2,1-3H3/t5-,6+/m0/s1
