18
gdb 4158	4.16994	1.21937	0.99217	1.0612	72.7	-0.2292	0.0041	0.2333	1187.1414	0.152975	-381.056525	-381.047845	-381.046901	-381.089938	31.478	
C	-0.0001367468	 1.5335595353	 0.0053883793	-0.387682
C	-0.2701811947	 0.045485366	-0.2289363378	-0.159045
C	 0.7098455258	-0.5699496955	-1.2222816876	-0.054104
N	 2.1262529034	-0.6669097841	-0.7333721568	-0.327579
C	 2.210405681	-2.1132383898	-1.0954056828	-0.259537
C	 0.7268382067	-2.077325906	-1.3826052125	 0.403195
N	-0.2029864628	-2.9010112727	-1.6117244889	-0.240122
O	 0.2883139687	-4.2202296607	-1.6406575474	-0.392261
H	 1.0171517194	 1.6833647306	 0.3807375026	 0.127611
H	-0.1081580953	 2.1100187535	-0.9207915553	 0.108426
H	-0.6948911315	 1.9512463701	 0.7399763735	 0.114335
H	-0.193475316	-0.503242153	 0.7161722995	 0.101642
H	-1.2876171476	-0.1082984793	-0.6081498297	 0.105919
H	 0.6227234768	-0.0587909914	-2.1941269664	 0.081798
H	 2.7746187297	-0.0846454442	-1.2503748004	 0.221054
H	 2.8153238682	-2.3480406967	-1.9818175026	 0.117638
H	 2.5321159332	-2.7653273893	-0.2761332775	 0.131106
H	-0.5112036985	-4.7311235626	-1.8064929292	 0.307605
93.0818	99.1217	120.5609	209.1358	228.5554	275.475	328.9071	372.1671	457.3703	489.435	581.0773	694.7712	749.7201	795.0969	855.4644	937.3649	962.7629	974.4568	994.7909	1025.2482	1061.5243	1086.8493	1128.6003	1153.9017	1189.4267	1236.758	1283.3783	1298.8764	1344.5973	1369.8552	1387.2621	1406.8153	1411.1032	1478.1398	1491.5055	1497.9983	1510.1992	1803.2259	2975.0231	3012.1566	3030.6714	3036.5945	3063.7815	3074.4177	3100.4849	3110.8601	3541.9778	3817.863
CCC1NCC1=NO	CC[C@H]1NCC1=NO	
InChI=1S/C5H10N2O/c1-2-4-5(7-8)3-6-4/h4,6,8H,2-3H2,1H3	InChI=1S/C5H10N2O/c1-2-4-5(7-8)3-6-4/h4,6,8H,2-3H2,1H3/t4-/m1/s1
