17
gdb 4918	6.59189	1.21238	1.03712	0.834	72.78	-0.1598	0.0633	0.2231	1124.2687	0.143763	-360.060936	-360.052477	-360.051533	-360.093574	31.331	
C	-0.0095209121	 1.4165285154	 0.067180681	-0.316505
N	 0.019428013	-0.0117003858	-0.1840189178	-0.381762
C	-1.1899521182	-0.7057968148	-0.0461925987	 0.321346
C	-2.4599334291	-0.176300332	 0.0117090234	-0.187086
N	-3.3514244212	-1.2451542895	 0.0443164406	-0.288246
C	-2.6605433821	-2.4231844828	 0.0418467736	 0.322612
N	-3.363557346	-3.6399780054	 0.1626028851	-0.608402
C	-1.3164139083	-2.133029098	-0.0290199084	-0.340292
H	 1.0049486201	 1.8179646113	 0.0013382638	 0.113757
H	-0.6139650091	 1.9121994743	-0.701409387	 0.125642
H	-0.4340879186	 1.6864491141	 1.0495086102	 0.100953
H	 0.7735121162	-0.4724944929	 0.3064398389	 0.225717
H	-2.8116816029	 0.840284622	-0.0056133591	 0.101704
H	-4.3271605632	-1.1778851823	 0.27330782	 0.251878
H	-3.8657939835	-3.878116091	-0.6882004781	 0.241773
H	-2.7233711793	-4.3984730859	 0.3624272215	 0.244441
H	-0.5129986058	-2.8501757065	-0.1085290589	 0.07247
85.7683	124.3301	180.5384	215.4651	242.8893	309.0835	346.6393	420.181	480.6245	557.9867	601.4689	642.2709	670.747	691.854	740.2579	757.9447	832.912	974.7388	1009.4666	1080.9488	1115.8074	1139.7807	1157.2352	1169.7818	1216.4822	1293.548	1317.4761	1404.9446	1455.6059	1477.9883	1489.0255	1514.1024	1524.8227	1579.0823	1637.3685	1661.4511	2954.983	3051.7349	3110.2982	3237.3278	3282.7826	3489.0149	3571.8599	3598.5358	3687.4222
CNC1=CNC(N)=C1	CNc1c[nH]c(N)c1	
InChI=1S/C5H9N3/c1-7-4-2-5(6)8-3-4/h2-3,7-8H,6H2,1H3	InChI=1S/C5H9N3/c1-7-4-2-5(6)8-3-4/h2-3,7-8H,6H2,1H3
