10
gdb 210	9.37443	3.72661	2.66657	2.8207	43.71	-0.2006	0.0315	0.2321	450.9127	0.075668	-301.385442	-301.380615	-301.379671	-301.413294	18.065	
O	 0.1095254935	 1.3546351369	-0.0671735928	-0.435078
C	 0.0693130035	 0.0040467256	-0.0758852208	 0.34925
C	-0.0253600056	-0.8125716012	-1.1735584308	-0.202181
N	-0.0286606112	-2.0932810429	-0.6396215803	-0.225402
C	 0.0615787438	-1.9795347921	 0.7067952826	 0.019083
N	 0.1228039308	-0.7163216331	 1.0829174506	-0.335469
H	 0.1767406149	 1.6125147771	 0.8601282827	 0.300159
H	-0.0876415553	-0.6183265456	-2.2289102191	 0.129757
H	-0.0876271081	-2.9494081987	-1.1636024267	 0.267777
H	 0.0788557637	-2.835030516	 1.3643031146	 0.132106
323.2658	374.2503	420.6127	488.8606	649.5037	662.4039	699.3015	733.4934	797.0792	947.0834	999.9873	1081.4677	1144.9556	1178.6518	1277.9456	1327.0901	1400.2554	1483.6564	1526.4363	1662.0046	3258.6848	3297.9715	3674.9438	3804.4952
OC1=CNC=N1	Oc1c[nH]cn1	
InChI=1S/C3H4N2O/c6-3-1-4-2-5-3/h1-2,6H,(H,4,5)	InChI=1S/C3H4N2O/c6-3-1-4-2-5-3/h1-2,6H,(H,4,5)
