16
gdb 462	6.66135	3.16539	2.35961	0.1605	61.66	-0.2341	0.03	0.2642	589.2794	0.144442	-234.516409	-234.510406	-234.509462	-234.545692	22.655	
C	-0.0461959675	 1.5770069857	-0.0026429151	-0.395117
C	 0.0274614078	 0.0463393864	 0.0192108781	 0.006673
C	 0.784177456	-0.5651504812	-1.1925468173	-0.210488
C	 1.5506898343	-1.7940803761	-0.641516924	-0.250113
C	 1.6097527604	-1.5141741117	 0.8424402424	-0.068749
C	 0.7867685144	-0.5294302525	 1.1968368322	-0.056505
H	 0.9583192454	 2.0145873346	-0.0080606141	 0.114005
H	-0.5740150723	 1.9339746082	-0.8936562843	 0.111075
H	-0.5760206157	 1.9640967234	 0.8745245254	 0.109432
H	-1.0050434414	-0.3370298364	 0.044313079	 0.074449
H	 0.1186785341	-0.8136846898	-2.0236190004	 0.092669
H	 1.5040206988	 0.1725725996	-1.5656359291	 0.098656
H	 1.0121875331	-2.7330998261	-0.835010684	 0.102907
H	 2.5406004084	-1.9124699751	-1.096908185	 0.099498
H	 2.2265703884	-2.0914740158	 1.5229905732	 0.087367
H	 0.6295622257	-0.177268763	 2.211544793	 0.084241
110.739	237.6674	284.1795	340.4862	495.6403	588.5101	748.0079	759.7137	822.7185	852.9991	908.2301	945.7467	967.6763	979.4278	999.1655	1069.3301	1106.605	1118.8148	1143.9865	1199.7075	1228.5963	1301.3355	1312.3786	1328.0954	1341.2316	1385.9472	1411.0889	1483.3628	1497.2885	1498.3774	1501.9361	1685.9337	2970.9088	3004.1965	3025.2448	3036.2583	3054.6022	3092.063	3094.6498	3097.6722	3172.4565	3199.5184
CC1CCC=C1	C[C@H]1CCC=C1	
InChI=1S/C6H10/c1-6-4-2-3-5-6/h2,4,6H,3,5H2,1H3	InChI=1S/C6H10/c1-6-4-2-3-5-6/h2,4,6H,3,5H2,1H3/t6-/m1/s1
