14
gdb 2004	6.6151	1.99851	1.99845	1.3361	64.31	-0.2429	0.0352	0.2782	689.1253	0.114332	-287.322957	-287.317069	-287.316125	-287.352424	23.092	
C	 0.0217429367	-1.1865249899	-0.0090885392	-0.333273
C	 0.0059036681	 0.0163579386	-0.0069058428	-0.003338
C	-0.0119259673	 1.4553571948	-0.00312681	 0.251214
C	-0.6558861985	 2.4338892494	 1.0172999337	-0.19711
N	-0.0362515877	 3.4068605727	 0.0020458917	-0.157791
C	 1.1730106265	 2.4592737281	 0.0373027421	-0.197184
C	-0.5901444365	 2.4402363465	-1.0565043791	-0.1972
H	 0.0348060665	-2.2485070947	-0.0115148695	 0.184339
H	-1.7470617708	 2.4771097267	 1.0596537829	 0.108402
H	-0.2103511749	 2.493666828	 2.0133918439	 0.108368
H	 1.7543927929	 2.5209099484	 0.9606305371	 0.10839
H	 1.811359138	 2.5264533263	-0.847207589	 0.108403
H	-0.0824046364	 2.5059112589	-2.0220321343	 0.108384
H	-1.6764890865	 2.4835507661	-1.1675649075	 0.108397
166.2944	169.1806	482.1826	482.7425	539.9586	597.3587	599.0034	645.8231	645.8426	793.557	795.915	889.9092	945.3187	977.8632	992.1088	996.1161	1022.521	1136.9631	1138.1831	1166.8881	1167.1751	1199.4499	1200.557	1264.9196	1303.1043	1509.8854	1511.7447	1563.3911	2230.7183	3053.8334	3054.0099	3062.9256	3122.9435	3128.9118	3129.0944	3499.7208
C#CC12CN(C1)C2	C#C[C@@]12CN(C1)C2	
InChI=1S/C6H7N/c1-2-6-3-7(4-6)5-6/h1H,3-5H2	InChI=1S/C6H7N/c1-2-6-3-7(4-6)5-6/h1H,3-5H2
