15
gdb 4718	6.71829	1.26128	1.06894	1.5676	80.85	-0.1975	0.0023	0.1998	1073.546	0.11891	-325.54225	-325.534457	-325.533513	-325.574241	29.039	
C	-0.0006486825	 1.5381443138	-0.0243387311	-0.504242
C	 0.0031495476	 0.039154877	 0.0146482693	 0.299254
C	-0.0487744423	-0.8099322739	-1.0739960717	-0.175873
N	-0.0263256198	-2.0993768807	-0.6225500894	-0.317401
C	 0.0403132437	-2.1102075801	 0.7567561782	 0.195519
C	 0.0597539175	-0.7861933985	 1.1682943717	-0.351662
C	 0.0765535009	-3.3116101612	 1.4897628743	 0.269347
C	 0.1069637794	-4.3491403508	 2.1035446288	-0.459423
H	 0.8981872983	 1.9579611372	 0.4416434028	 0.127215
H	-0.0405537713	 1.9058749202	-1.0538140422	 0.118546
H	-0.862528825	 1.9556132825	 0.5088942574	 0.127284
H	-0.0997060708	-0.5894961464	-2.1288177325	 0.118441
H	-0.0529353512	-2.9269098975	-1.1921211106	 0.266117
H	 0.1094539585	-0.4600989809	 2.1959052936	 0.098492
H	 0.1342935269	-5.2558984607	 2.6545347814	 0.188387
92.3324	130.8898	145.473	274.022	317.5583	438.8236	482.2963	514.2536	528.0737	545.2863	633.5808	674.57	678.8836	699.8686	745.1099	826.5573	990.4535	993.721	1005.4955	1064.7732	1138.6808	1169.1279	1257.0021	1328.7522	1408.2	1420.2457	1441.027	1483.7664	1503.1629	1515.4101	1618.1041	2223.7896	3026.6236	3076.1711	3105.1849	3251.8533	3256.2042	3504.6225	3685.5102
CC1=CNC(=C1)C#C	Cc1c[nH]c(c1)C#C	
InChI=1S/C7H7N/c1-3-7-4-6(2)5-8-7/h1,4-5,8H,2H3	InChI=1S/C7H7N/c1-3-7-4-6(2)5-8-7/h1,4-5,8H,2H3
