11
gdb 2567	4.74103	2.26325	1.72133	2.8639	52.68	-0.294	-0.0677	0.2263	685.5414	0.078181	-339.424322	-339.417869	-339.416924	-339.454749	22.397	
O	-0.1710844207	 0.325152367	 0.7290373218	-0.257501
C	 0.1168976515	 1.0783068085	-0.1665526423	 0.10505
C	 1.3420095186	 1.9507915136	-0.0990478733	 0.074499
C	 1.5250696998	 2.6972698961	 1.2073033789	-0.236801
N	 2.3709833898	 1.5694761294	 0.8892805934	-0.313603
C	 1.788406525	 2.5287790545	-1.3424958312	 0.247369
N	 2.0926800343	 2.9895263427	-2.357804855	-0.316608
H	-0.4929458525	 1.1750852725	-1.0845190456	 0.121991
H	 2.0030612135	 3.6708007177	 1.1664434362	 0.158666
H	 0.726920647	 2.5769576941	 1.9344759328	 0.152522
H	 2.0143690936	 0.7348212239	 1.3592061042	 0.264415
136.6072	165.0673	227.6668	274.0245	330.4869	537.5769	546.1336	574.8293	750.5059	827.7745	921.3314	971.7694	1008.4193	1020.6801	1120.3106	1143.1646	1248.1204	1317.0127	1347.4187	1420.666	1495.3657	1810.1161	2362.2244	2963.9698	3120.1751	3222.1132	3453.7822
O=CC1(CN1)C#N	O=C[C@]1(CN1)C#N	
InChI=1S/C4H4N2O/c5-1-4(3-7)2-6-4/h3,6H,2H2	InChI=1S/C4H4N2O/c5-1-4(3-7)2-6-4/h3,6H,2H2/t4-/m1/s1
