17
gdb 4548	3.84117	1.65428	1.17351	2.0076	72.27	-0.1768	0.0492	0.226	1010.4406	0.141607	-363.896836	-363.888163	-363.887219	-363.930107	31.155	
C	-0.0031760989	 1.4434560791	 0.0399042324	-0.336688
N	-0.02257371	-0.0019092236	 0.015246645	-0.038001
C	 0.0224617909	-0.7629288542	-1.1414865508	-0.201334
C	 0.0854090631	-2.0824181196	-0.7647291897	 0.317063
O	 0.1253402861	-3.1301990659	-1.6424191394	-0.451387
C	 0.0883598199	-2.1295979704	 0.6551593542	-0.391612
C	 0.025095457	-0.8259071137	 1.1115276391	 0.327457
C	 0.0100836455	-0.3061833962	 2.5115595121	-0.502592
H	 1.0040970729	 1.8406807968	 0.2191913005	 0.132103
H	-0.3564826784	 1.822158403	-0.9213526254	 0.140201
H	-0.667240391	 1.8242744057	 0.8206756151	 0.136129
H	-0.0002992113	-0.3073292752	-2.1169063197	 0.110203
H	 0.1685689492	-3.9445302963	-1.1339173418	 0.293263
H	 0.1180824139	-3.0133665049	 1.2765212842	 0.081474
H	 0.8667307334	 0.3444215825	 2.7295893038	 0.125009
H	-0.8970537516	 0.2690787761	 2.7377383514	 0.125756
H	 0.0481698694	-1.1437502132	 3.211765359	 0.132957
53.8191	146.63	159.2621	200.6328	215.9973	275.308	300.8257	337.154	497.8246	590.1736	613.4175	634.9396	641.3478	677.0372	743.5416	806.4121	998.5624	1018.3903	1059.1193	1074.6134	1146.536	1167.3194	1178.3583	1194.6858	1278.2159	1381.5649	1417.9428	1428.3977	1464.039	1477.4607	1481.5574	1491.8541	1502.4205	1520.5421	1554.346	1654.7893	3011.7419	3019.5114	3053.341	3089.1113	3120.5664	3130.8649	3227.6141	3272.9803	3847.369
CN1C=C(O)C=C1C	Cn1cc(O)cc1C	
InChI=1S/C6H9NO/c1-5-3-6(8)4-7(5)2/h3-4,8H,1-2H3	InChI=1S/C6H9NO/c1-5-3-6(8)4-7(5)2/h3-4,8H,1-2H3
