17
gdb 2196	4.03952	2.21376	1.63916	2.6203	64.71	-0.2335	-0.0142	0.2193	811.4194	0.146976	-309.739069	-309.731252	-309.730308	-309.771021	28.041	
C	-1.0686658441	 1.2001346573	-0.3126024445	-0.40558
C	-0.11777208	 0.0136077714	-0.3759936108	-0.078736
C	 0.9086368317	-0.1294282997	-1.5468966085	-0.264535
C	 2.0355016827	-0.514162416	-0.533415432	-0.078735
C	 3.4242480361	 0.0989080263	-0.6410737838	-0.405581
C	 1.0970251625	 0.0080389583	 0.5690718252	 0.379672
O	 1.2797007537	 0.422379657	 1.6786706589	-0.306463
H	-0.5286730546	 2.1429329079	-0.4480210725	 0.120107
H	-1.8377767548	 1.1355746825	-1.088811818	 0.118256
H	-1.5680360969	 1.240872437	 0.660068037	 0.134608
H	-0.6690444712	-0.9267574872	-0.2450250078	 0.100583
H	 0.6725321967	-0.8621819695	-2.3198097065	 0.104492
H	 1.1104717803	 0.835654645	-2.0216426302	 0.108357
H	 2.1043780571	-1.6065290082	-0.4477836262	 0.100583
H	 3.3657750917	 1.188392702	-0.7327419987	 0.120107
H	 4.0145245502	-0.127429333	 0.2519341066	 0.134608
H	 3.962674639	-0.2861373513	-1.512875048	 0.118256
72.5801	174.7509	181.598	183.7288	219.0703	332.3389	342.003	527.093	546.3118	676.3146	747.1724	812.3634	885.0374	914.5114	939.8497	959.0671	996.798	1094.0186	1118.4185	1137.6981	1146.5396	1175.4284	1231.786	1255.3492	1256.9413	1325.4002	1355.9882	1407.8147	1408.0526	1488.2938	1493.1074	1493.8511	1495.4633	1497.082	1880.3449	3025.9026	3029.6319	3035.4134	3035.9745	3060.6187	3103.6918	3104.101	3111.2539	3111.4236	3124.7849
CC1CC(C)C1=O	C[C@H]1C[C@@H](C)C1=O	
InChI=1S/C6H10O/c1-4-3-5(2)6(4)7/h4-5H,3H2,1-2H3	InChI=1S/C6H10O/c1-4-3-5(2)6(4)7/h4-5H,3H2,1-2H3/t4-,5+
