12
gdb 3090	3.93168	2.37089	2.08709	3.9556	51.05	-0.2633	0.0164	0.2797	654.7	0.089338	-360.498298	-360.491421	-360.490477	-360.529072	24.63	
O	 0.103258046	 1.3567673267	-0.0097860997	-0.407236
C	 0.0173357795	-0.015317699	-0.0188550347	 0.12495
C	-0.4250852821	-0.7164613582	 1.2246557492	 0.032632
O	-0.7170996959	 0.1557759748	 2.2694773544	-0.416204
C	-1.3583891532	-0.7206579577	 0.001401583	-0.289339
C	-2.5536525031	 0.0577286716	 0.0896209121	 0.286492
N	-3.5178927142	 0.6867253351	 0.2120019439	-0.335225
H	-0.18294317	 1.6477694984	 0.8689960218	 0.305512
H	 0.7637629692	-0.4809292585	-0.6538478349	 0.127487
H	 0.0166745046	-1.6667099432	 1.5165116784	 0.117226
H	-1.6310967252	 0.0322644262	 2.5524579546	 0.314109
H	-1.4466564556	-1.6517657762	-0.548028888	 0.139596
114.2901	138.8495	242.9017	281.9931	359.9092	409.7992	472.7154	612.0209	650.4006	688.3113	727.5507	784.3395	918.554	990.0414	1018.049	1101.7268	1105.6968	1173.1989	1228.8575	1303.1475	1340.2006	1356.4126	1395.0021	1457.7045	2347.2042	3129.5356	3169.3491	3177.3994	3728.6946	3790.9272
OC1C(O)C1C#N	O[C@H]1[C@@H](O)[C@H]1C#N	
InChI=1S/C4H5NO2/c5-1-2-3(6)4(2)7/h2-4,6-7H	InChI=1S/C4H5NO2/c5-1-2-3(6)4(2)7/h2-4,6-7H/t2-,3+,4-
