11
gdb 3694	7.25879	2.26305	1.74392	3.0009	48.42	-0.2451	0.0033	0.2484	666.3047	0.079198	-376.622509	-376.616399	-376.615455	-376.65244	21.51	
C	-0.0117622458	 1.4577219774	 0.0531719433	-0.484701
C	-0.0231322895	-0.0201104779	-0.0434467899	 0.424229
N	-0.1493979397	-0.7287970529	-1.1099048103	-0.257296
N	-0.0935249784	-2.0257485863	-0.6391456485	-0.312861
C	 0.0670186133	-2.1010849143	 0.7148649501	 0.478338
O	 0.1557706365	-3.0308689257	 1.4620882496	-0.385176
O	 0.1121553847	-0.7529164252	 1.0973040506	-0.229125
H	 0.9294406156	 1.8089604451	 0.4877788419	 0.156887
H	-0.1302684446	 1.8825949305	-0.9440931547	 0.161637
H	-0.8249805919	 1.8088081214	 0.696219905	 0.156885
H	-0.1676407201	-2.8044147621	-1.2690640971	 0.291183
149.4841	171.161	276.7903	297.5267	426.7871	529.5806	644.9403	671.66	761.8925	792.3634	914.1316	971.4877	1018.093	1069.9687	1102.2135	1220.1196	1347.948	1390.5109	1427.1859	1470.6786	1479.9186	1692.0487	1920.401	3048.5567	3106.6418	3157.5849	3704.1635
CC1=NNC(=O)O1	Cc1n[nH]c(=O)o1	
InChI=1S/C3H4N2O2/c1-2-4-5-3(6)7-2/h1H3,(H,5,6)	InChI=1S/C3H4N2O2/c1-2-4-5-3(6)7-2/h1H3,(H,5,6)
