12
gdb 2957	6.48258	1.77952	1.54339	2.6113	59.43	-0.2632	-0.07	0.1933	768.9982	0.089284	-323.3247	-323.317917	-323.316972	-323.355724	23.843	
O	-0.0402421651	 0.1275303485	-0.6055963261	-0.322204
C	 0.0156598759	 1.2912038605	-0.2529650649	 0.249982
C	 1.2633713548	 1.9256448211	 0.1201079632	 0.250856
C	 2.2868122079	 2.4760597806	 0.4338114717	-0.401257
C	-1.2028640235	 2.1540044959	-0.1871666184	-0.112762
C	-2.0700018653	 2.1496159382	-1.4138662694	-0.216255
N	-2.5025138818	 1.4716513848	-0.2020267139	-0.299888
H	 3.2011079716	 2.9450208345	 0.7069742679	 0.21961
H	-1.1349400856	 3.0523506824	 0.417243718	 0.112009
H	-2.6126930431	 3.0558145027	-1.6659301607	 0.13174
H	-1.7262418499	 1.5523262385	-2.2536671773	 0.136565
H	-2.3098444558	 0.4736094624	-0.29962544	 0.251606
73.0337	146.2085	227.1067	281.2676	307.2814	478.9487	598.739	651.0727	706.5166	759.8955	788.8134	851.3969	890.9278	975.062	1005.1868	1103.1155	1123.2571	1143.9941	1177.8349	1286.2893	1316.03	1393.4056	1497.9448	1740.9152	2214.6957	3115.2629	3171.8044	3210.1291	3461.6754	3493.5391
O=C(C#C)C1CN1	O=C(C#C)[C@H]1CN1	
InChI=1S/C5H5NO/c1-2-5(7)4-3-6-4/h1,4,6H,3H2	InChI=1S/C5H5NO/c1-2-5(7)4-3-6-4/h1,4,6H,3H2/t4-/m1/s1
