13
gdb 1050	7.76234	2.07104	1.65204	3.1775	55.42	-0.2003	0.0447	0.2449	716.6718	0.103704	-340.657197	-340.650893	-340.649949	-340.687429	22.668	
C	 0.0728121736	 0.9130500122	 0.5901390537	-0.249648
O	 0.0512519459	 0.9329339492	-0.8298884835	-0.259589
C	 0.694099535	-0.0989201132	-1.4091610105	 0.404773
C	 1.3849546968	-1.1971141453	-0.9633652593	-0.225047
N	 1.8369250572	-1.9300248603	-2.0472388074	-0.248015
C	 1.4286040434	-1.2892382616	-3.1102010603	 0.007873
N	 0.7222889439	-0.1586872128	-2.7802261978	-0.332577
H	-0.4107232978	 0.007118814	 0.9761164874	 0.131844
H	 1.1022890202	 0.957549994	 0.9664668288	 0.131828
H	-0.4785403934	 1.793759251	 0.9209930573	 0.138353
H	 1.5834518153	-1.5025963432	 0.0506095415	 0.104506
H	 1.6012548546	-1.5756957111	-4.1364403337	 0.127369
H	 0.2983516154	 0.5130136273	-3.3978349663	 0.268331
96.0781	198.5904	229.3388	324.2825	483.2142	486.4534	671.4685	672.6705	682.8	777.307	783.6432	922.9105	1019.3943	1080.5729	1099.1143	1136.1285	1184.3277	1218.7538	1273.24	1285.8906	1393.1079	1447.7899	1474.7107	1484.0043	1507.8744	1533.533	1634.3088	3013.0298	3074.1733	3145.3415	3254.2647	3265.1844	3667.478
COC1=CN=CN1	COc1cnc[nH]1	
InChI=1S/C4H6N2O/c1-7-4-2-5-3-6-4/h2-3H,1H3,(H,5,6)	InChI=1S/C4H6N2O/c1-7-4-2-5-3-6-4/h2-3H,1H3,(H,5,6)
