12
gdb 426	5.33196	3.90126	2.45716	1.33	47.4	-0.2491	0.0196	0.2687	518.7658	0.097893	-302.535621	-302.529817	-302.528873	-302.564883	20.618	
N	 0.0796776603	 1.4870162654	 0.147064242	-0.510702
C	-0.0116672161	 0.0529788796	-0.0084891427	-0.088337
C	-1.4215868247	-0.5598622633	-0.1737512243	-0.084894
O	-0.9946569232	-1.2308387704	-1.4009388643	-0.252539
C	 0.2446100754	-0.6226356986	-1.3578814275	 0.407394
N	 1.1881940206	-0.6196764125	-2.1827708188	-0.54436
H	 1.0535259765	 1.7604959988	 0.2347094676	 0.246103
H	-0.2703613228	 1.9538790389	-0.6853552098	 0.235544
H	 0.5582444776	-0.42629032	 0.7922778139	 0.117426
H	-1.75116185	-1.2789955296	 0.5788625192	 0.12419
H	-2.210349125	 0.1693756858	-0.3790000885	 0.121244
H	 0.9677409514	-1.175567304	-3.0112156868	 0.228931
126.6249	226.3301	247.4158	360.7516	478.8752	664.306	727.346	814.3704	864.4014	877.7683	964.2021	974.102	997.4428	1016.9125	1150.0031	1170.8032	1222.5078	1240.2343	1256.6575	1349.5398	1431.4838	1514.3475	1668.8142	1821.3392	3061.8105	3079.4602	3126.1247	3471.2698	3493.1129	3571.8105
NC1COC1=N	N[C@H]1CO[C]1[NH]	
InChI=1S/C3H6N2O/c4-2-1-6-3(2)5/h2,5H,1,4H2	InChI=1S/C3H6N2O/c4-2-1-6-3(2)5/h2,5H,1,4H2/t2-/m0/s1
