17
gdb 2071	4.19397	2.48188	1.73872	3.008	63.87	-0.2332	-0.0094	0.2238	747.4134	0.150525	-309.764115	-309.757612	-309.756668	-309.7945	24.961	
O	 0.0028715256	-0.0740842399	-0.0066046085	-0.307966
C	-0.0137706192	 1.1349917137	-0.0059813819	 0.393649
C	-1.3086408142	 1.9381582877	 0.0113488702	-0.286564
C	-1.3194049344	 3.0298801423	-1.0785547378	-0.199471
C	-0.0654220325	 3.9101654978	-1.005208698	-0.183769
C	 1.209896346	 3.0647106384	-1.1125598784	-0.199471
C	 1.2584926409	 1.9735114939	-0.0231628769	-0.286564
H	-2.1488249945	 1.246747015	-0.0877577861	 0.116496
H	-1.3856126003	 2.4194625696	 0.9972522764	 0.113344
H	-1.3687026588	 2.5509714666	-2.0652494587	 0.107418
H	-2.2254841656	 3.6373776251	-0.9820610453	 0.101153
H	-0.0864827149	 4.6616617929	-1.801953819	 0.098096
H	-0.0602418426	 4.4619013098	-0.0547957983	 0.09524
H	 1.2458206007	 2.5869740012	-2.1003996614	 0.107418
H	 2.1011731105	 3.6969591404	-1.0402320977	 0.101153
H	 1.3486535198	 2.4571199383	 0.9604924846	 0.113344
H	 2.1144280999	 1.3054589073	-0.1450699633	 0.116496
98.1814	180.0669	304.5089	402.5383	410.4833	475.2381	488.2121	656.6436	748.9206	761.1408	840.8428	875.8762	895.6918	918.3215	1002.0476	1025.6112	1058.7542	1080.8789	1127.5641	1137.1473	1235.3487	1245.9416	1268.9415	1287.0158	1334.1185	1343.8258	1368.0374	1378.6738	1379.7336	1461.2982	1469.5494	1489.1373	1489.7642	1505.529	1817.3555	3007.5731	3012.5385	3014.281	3024.6454	3026.9488	3068.391	3069.9766	3075.0975	3104.3383	3105.9165
O=C1CCCCC1	O=C1CCCCC1	
InChI=1S/C6H10O/c7-6-4-2-1-3-5-6/h1-5H2	InChI=1S/C6H10O/c7-6-4-2-1-3-5-6/h1-5H2
