17
gdb 2861	6.36406	1.335	1.27528	2.0593	60.87	-0.2617	0.0794	0.3411	987.6582	0.147123	-346.831692	-346.823566	-346.822622	-346.864591	28.582	
C	-0.3867707522	 1.4110800903	 0.3862460683	-0.375303
C	 0.2640778994	 0.1372997339	-0.1677290188	-0.217013
C	 1.063303007	-0.5843076215	 0.8918733335	 0.082756
O	 0.336248105	-1.3080200021	 1.8945871574	-0.273815
C	 1.2153046059	-2.0428982758	 1.0231518702	 0.026568
C	 0.5422850268	-3.0775731272	 0.1558603996	-0.083654
O	 0.1086024349	-4.1790970484	 0.9373089877	-0.418934
H	 0.3670353672	 2.1067966924	 0.7706969151	 0.116984
H	-0.9571754922	 1.9305052869	-0.3890286282	 0.115715
H	-1.0679250524	 1.1688572706	 1.2074004782	 0.134453
H	-0.5063073207	-0.5237717011	-0.5739428741	 0.10742
H	 0.9384500265	 0.3905340291	-0.9961296661	 0.10379
H	 1.8765008428	 0.0159879935	 1.3095434745	 0.087252
H	 2.1116171051	-2.4119836657	 1.5258846424	 0.09601
H	-0.2916391003	-2.6323533171	-0.402830694	 0.092851
H	 1.2581872626	-3.4785302577	-0.5702271617	 0.111931
H	-0.4628381254	-3.8186560501	 1.6250894061	 0.292988
58.4169	84.5543	154.5187	196.9577	242.5899	309.0534	406.2754	431.1939	491.2104	580.2059	745.8035	809.2902	818.0013	921.9814	954.8804	1021.5615	1033.472	1068.3043	1105.6291	1114.3732	1170.1511	1182.709	1230.8652	1292.8282	1300.338	1339.7268	1363.4849	1400.9138	1410.3806	1434.9749	1471.9449	1492.5908	1496.5563	1498.9483	1509.0229	3015.8111	3031.113	3037.2622	3064.7039	3072.1248	3088.2406	3097.847	3110.7141	3117.6685	3800.4651
CCC1OC1CO	CC[C@H]1O[C@H]1CO	
InChI=1S/C5H10O2/c1-2-4-5(3-6)7-4/h4-6H,2-3H2,1H3	InChI=1S/C5H10O2/c1-2-4-5(3-6)7-4/h4-6H,2-3H2,1H3/t4-,5+/m1/s1
