16
gdb 564	8.13109	2.39776	2.05141	1.6234	56.72	-0.2406	0.087	0.3276	657.946	0.143052	-271.620156	-271.61347	-271.612526	-271.650802	23.46	
C	-0.1795449892	 1.4968421323	-0.0540555923	-0.380476
C	 0.0358282101	-0.0176134331	 0.0184769376	-0.185622
C	 0.8677742736	-0.5400025784	-1.1391990816	 0.182681
C	 0.9345131331	-2.0671241978	-1.3677323715	-0.299069
C	 0.3466369981	-1.741243168	-2.7544747949	-0.056204
O	 0.217470113	-0.3441437489	-2.4227818701	-0.293492
H	 0.7727719365	 2.0354937149	 0.0056777755	 0.112127
H	-0.6588431408	 1.7669500154	-0.9992649592	 0.138028
H	-0.8144019555	 1.847777782	 0.7648542963	 0.110117
H	 0.5401614114	-0.2894328487	 0.9557877906	 0.093242
H	-0.9316652781	-0.5352386071	 0.0148391265	 0.095495
H	 1.8555995658	-0.0542149358	-1.1386649687	 0.067348
H	 1.9292223476	-2.514910084	-1.3573557654	 0.107724
H	 0.2741192644	-2.6425957633	-0.7150788329	 0.107506
H	 1.0318414739	-1.898767111	-3.597696075	 0.098524
H	-0.6204230739	-2.1970282985	-2.9979208647	 0.102071
75.1532	113.5767	199.983	237.6728	398.9665	445.4313	714.5158	780.3547	816.0444	866.5643	928.3362	962.5522	988.8744	1008.8234	1034.4852	1107.1623	1111.9591	1161.5558	1189.5594	1219.8468	1256.2192	1274.901	1303.8097	1332.3755	1368.9877	1405.0429	1410.1804	1474.1287	1490.1379	1497.0208	1508.8454	1532.1263	2981.9168	3010.9402	3016.33	3035.7387	3051.258	3056.3958	3073.8555	3102.1668	3118.9286	3130.0254
CCC1CCO1	CC[C@H]1CCO1	
InChI=1S/C5H10O/c1-2-5-3-4-6-5/h5H,2-4H2,1H3	InChI=1S/C5H10O/c1-2-5-3-4-6-5/h5H,2-4H2,1H3/t5-/m0/s1
