16
gdb 2097	4.99951	2.42517	1.76435	2.0936	61.38	-0.2451	0.0263	0.2714	727.8349	0.138785	-325.797425	-325.790917	-325.789972	-325.827699	24.452	
C	-0.0492590265	 1.5404861812	 0.0250783379	-0.384239
C	 0.0539948538	 0.0150724435	 0.0034584176	 0.065605
C	 0.7315386388	-0.5107062399	-1.2694775312	-0.228964
C	 1.0251651443	-1.9951679204	-1.1029659943	-0.077035
O	 1.7914827878	-2.2424815768	 0.0864223942	-0.224799
C	 1.5219899873	-1.4320338793	 1.1386937998	 0.128344
N	 0.7549981562	-0.4303157386	 1.2133750979	-0.277396
H	 0.9474234876	 1.9926845126	-0.0095053471	 0.117051
H	-0.6251154963	 1.9069661623	-0.8312757561	 0.104405
H	-0.5364648367	 1.8719990048	 0.9455140982	 0.125618
H	-0.9667013408	-0.3928424379	 0.0515902004	 0.084632
H	 0.1032620574	-0.3522172204	-2.1524325278	 0.103493
H	 1.6715722156	 0.0302348589	-1.4336063824	 0.111024
H	 0.0930035349	-2.5714790774	-1.0361733352	 0.112092
H	 1.618074613	-2.3988054977	-1.9272239353	 0.118027
H	 2.0940983037	-1.7605966947	 2.0051392735	 0.122144
108.9495	233.489	252.9022	319.2825	378.1686	455.561	532.6969	586.8181	786.6053	803.6912	872.659	899.5961	963.0147	968.5827	990.2046	1023.0042	1102.5666	1139.2488	1161.5142	1188.2903	1242.3724	1274.3655	1331.8707	1346.5229	1379.2199	1401.8688	1406.1353	1419.4598	1478.1886	1487.3738	1498.6333	1512.4636	1729.7324	2989.4734	3022.219	3033.1677	3037.416	3082.4062	3099.9111	3105.4257	3122.113	3152.521
CC1CCOC=N1	C[C@H]1CCOC=N1	
InChI=1S/C5H9NO/c1-5-2-3-7-4-6-5/h4-5H,2-3H2,1H3	InChI=1S/C5H9NO/c1-5-2-3-7-4-6-5/h4-5H,2-3H2,1H3/t5-/m0/s1
