16
gdb 299	5.09266	2.97394	2.52892	1.2792	56.93	-0.2497	0.083	0.3327	599.392	0.141365	-271.621961	-271.61481	-271.613865	-271.652008	26.639	
C	-0.0861025383	 1.5521556609	-0.004309941	-0.443847
C	-0.0135363605	 0.0379910338	 0.0116855787	 0.335037
C	-1.241512644	-0.6622825204	-0.5377578731	-0.448636
C	 1.3393726277	-0.6123736579	-0.234746344	-0.364786
C	 0.7182992737	-0.631924847	 1.1432477274	 0.079546
O	 1.2438831113	 0.1818324794	 2.1531608228	-0.421263
H	 0.7838822525	 1.9959848745	 0.4826239161	 0.126778
H	-0.1420263479	 1.9270445324	-1.0327498303	 0.107834
H	-0.9784028561	 1.9037273008	 0.5267594472	 0.113181
H	-1.4033440543	-0.4014652752	-1.590372297	 0.114504
H	-1.1464765877	-1.7512854072	-0.4781854824	 0.109331
H	-2.1409012043	-0.3733762007	 0.0187158646	 0.115958
H	 1.3858798236	-1.5367374552	-0.801870192	 0.104237
H	 2.1877108512	 0.0501365117	-0.3747149688	 0.107578
H	 0.314310826	-1.5815421421	 1.4971589035	 0.078022
H	 2.105502127	-0.1709629977	 2.3978846884	 0.286525
190.8083	206.1728	227.7276	263.976	294.8058	344.5374	378.8861	464.3275	510.0521	695.1963	800.4352	884.6884	915.5579	974.0779	976.834	1023.498	1039.6803	1077.1119	1119.5693	1157.666	1184.5062	1275.6718	1309.8739	1340.0726	1407.7597	1421.6286	1423.9252	1482.3077	1485.7141	1491.5234	1501.8501	1516.2338	3019.9779	3028.6449	3080.4317	3083.3086	3084.1426	3096.1233	3121.9268	3133.2816	3210.5904	3806.9826
CC1(C)CC1O	CC1(C)C[C@H]1O	
InChI=1S/C5H10O/c1-5(2)3-4(5)6/h4,6H,3H2,1-2H3	InChI=1S/C5H10O/c1-5(2)3-4(5)6/h4,6H,3H2,1-2H3/t4-/m1/s1
