15
gdb 4435	3.53263	1.86012	1.23598	3.087	66.24	-0.1841	0.0387	0.2228	944.0152	0.119235	-396.010767	-396.002648	-396.001704	-396.043053	29.684	
C	 0.1223073913	 1.5374611115	 0.0418611348	-0.505349
C	 0.0076384085	 0.0566016689	 0.0069790259	 0.318416
C	-1.0769665652	-0.7304989713	 0.0392774411	 0.162824
N	-2.4285021137	-0.4199554716	 0.1148369438	-0.594148
O	-0.6695777315	-2.0807101568	-0.0176942327	-0.23957
C	 0.7046242559	-2.1129871114	-0.0870078244	 0.455906
N	 1.4585879668	-3.1316748031	-0.1527118821	-0.610952
N	 1.1119159413	-0.7959101894	-0.0707691965	-0.394998
H	 0.7051597636	 1.876044231	 0.9069603377	 0.133511
H	 0.615792257	 1.924678435	-0.8577573925	 0.133482
H	-0.8759688501	 1.9736633203	 0.104377289	 0.157298
H	-2.9489106455	-0.7551604114	-0.6908414682	 0.247947
H	-2.8680928893	-0.80231374	 0.9472168019	 0.247948
H	 0.9057276018	-3.9845036633	-0.1488882293	 0.219279
H	 2.0796251791	-0.5330162985	-0.1136564183	 0.268405
91.8242	164.7338	212.0782	236.0169	250.8605	267.4955	322.2597	405.8164	536.1785	614.1915	627.0373	656.3619	712.7274	749.6772	793.485	831.6244	957.7139	994.835	1031.6264	1070.7683	1091.1308	1218.5131	1256.7067	1297.7115	1354.9221	1410.7487	1449.6182	1481.3408	1494.8232	1658.4047	1775.2842	1811.2058	3024.4081	3071.1705	3141.5782	3484.2318	3540.2964	3544.0881	3704.6056
CC1=C(N)OC(=N)N1	CC1=C(N)O[C@H]([NH])N1	
InChI=1S/C4H7N3O/c1-2-3(5)8-4(6)7-2/h5H2,1H3,(H2,6,7)	InChI=1S/C4H8N3O/c1-2-3(5)8-4(6)7-2/h4,6-7H,5H2,1H3/t4-/m1/s1
