13
gdb 3007	5.43562	1.81182	1.50682	2.7472	50.95	-0.2697	-0.0424	0.2272	783.9437	0.099946	-381.573048	-381.566008	-381.565063	-381.60446	24.51	
O	-0.3961685298	 1.3070749082	-0.6892365549	-0.421438
C	-0.6946633442	-0.0555136282	-0.6347090881	-0.135283
C	-0.896113282	-0.507802003	 0.8027340238	 0.332509
O	-0.6924902294	 0.2628129708	 1.7177002924	-0.32659
C	-1.3173734122	-1.9203288193	 1.0621303189	-0.013826
C	-2.5533982039	-2.4592494138	 0.4539231004	-0.171012
O	-1.2756942531	-2.8227415224	-0.0447722532	-0.212442
H	-0.3049565855	 1.586988383	 0.2355838445	 0.294505
H	-1.5924909391	-0.2865019266	-1.2277880461	 0.121058
H	 0.1114882884	-0.6754673147	-1.0618921424	 0.132914
H	-0.9949072644	-2.3208192084	 2.0215731857	 0.127668
H	-3.0940486737	-3.2380044762	 0.9886056401	 0.1385
H	-3.1550126709	-1.8288987793	-0.1980887212	 0.133439
97.6235	109.1193	185.4667	259.9206	331.7477	417.2111	487.3395	564.2471	587.754	806.2172	876.9913	902.9501	927.5676	1019.3284	1084.5352	1130.7281	1152.759	1163.0654	1217.9233	1239.005	1262.8619	1318.0297	1390.9816	1453.2132	1478.5956	1522.4306	1791.7289	2977.8872	3006.3989	3094.2676	3138.9145	3187.095	3687.5204
OCC(=O)C1CO1	OCC(=O)[C@H]1CO1	
InChI=1S/C4H6O3/c5-1-3(6)4-2-7-4/h4-5H,1-2H2	InChI=1S/C4H6O3/c5-1-3(6)4-2-7-4/h4-5H,1-2H2/t4-/m1/s1
