13
gdb 3565	5.42173	3.13282	3.10522	0.1218	51.25	-0.2406	0.0711	0.3116	514.961	0.103611	-344.382282	-344.377621	-344.376677	-344.410416	19.287	
C	-0.0763608199	 1.6101777945	-0.0511733256	-0.223789
C	 1.4499446334	 1.3732847074	-0.0143084371	 0.030686
O	 1.1964484894	 0.2031976973	 0.8450294235	-0.301222
C	 0.0010048085	 0.0677546767	-0.0060878095	 0.030686
C	 0.662912576	-0.3098646195	-1.3583918868	 0.038785
O	 0.6885863584	 0.746842479	-2.3314527284	-0.242904
C	 1.7483208315	 0.6681164476	-1.3645526013	 0.038784
H	-0.4294993554	 2.0080914016	 0.8990171367	 0.113075
H	-0.5257491465	 2.1035225079	-0.9102664287	 0.124398
H	 2.1772092747	 2.0738805354	 0.3924492389	 0.08449
H	-0.7687524405	-0.5805040371	 0.4091642681	 0.08449
H	 0.7188158399	-1.3257051332	-1.7317491025	 0.111261
H	 2.7505093904	 0.5049021124	-1.7432770574	 0.111261
391.837	414.0841	554.5122	603.2169	692.8197	780.677	797.9462	845.1091	868.5717	881.5224	906.108	929.3373	952.6741	988.4476	1016.7108	1076.055	1079.0619	1097.2358	1178.366	1233.0208	1237.4963	1260.0349	1286.0002	1295.408	1298.6914	1397.5749	1474.0533	3105.5637	3138.3832	3140.9331	3179.611	3183.1804	3195.7295
C1C2OC1C1OC21	C1[C@H]2O[C@@H]1[C@H]1O[C@@H]21	
InChI=1S/C5H6O2/c1-2-4-5(7-4)3(1)6-2/h2-5H,1H2	InChI=1S/C5H6O2/c1-2-4-5(7-4)3(1)6-2/h2-5H,1H2/t2-,3+,4+,5-
