10
gdb 4640	5.62468	1.50253	1.18577	4.6225	52.96	-0.2747	-0.0855	0.1892	889.3559	0.060056	-454.46467	-454.458458	-454.457514	-454.495506	21.741	
O	-0.0299710316	-0.0617881162	-0.0004968746	-0.254388
C	-0.0184606205	 1.1445838855	 0.0091050676	 0.077312
C	 1.1850798693	 1.9660846756	 0.0020718047	 0.217805
C	 1.3317042452	 3.2999351586	 0.01113648	-0.075742
O	 2.6542133144	 3.6108726965	-0.0013448535	-0.19649
C	 3.3581225883	 2.4112104666	-0.0189428024	 0.511655
O	 4.5362902717	 2.3128511071	-0.033034925	-0.342911
O	 2.4454651185	 1.3985945924	-0.01672035	-0.222941
H	-0.9474345725	 1.7536280129	 0.0244152935	 0.094157
H	 0.6235896472	 4.1113057811	 0.0256549297	 0.191544
126.7491	163.7066	196.2945	360.8892	475.709	534.3475	605.1476	721.2115	769.0553	794.5028	819.4035	881.0881	984.5258	1010.2979	1043.8856	1170.093	1291.8487	1349.6241	1423.5214	1678.4663	1800.2012	1962.9111	2905.5919	3292.6409
O=CC1=COC(=O)O1	O=Cc1coc(=O)o1	
InChI=1S/C4H2O4/c5-1-3-2-7-4(6)8-3/h1-2H	InChI=1S/C4H2O4/c5-1-3-2-7-4(6)8-3/h1-2H
