17
gdb 83	7.26511	3.32874	2.54491	0.0618	56.26	-0.3085	0.085	0.3934	565.8412	0.159632	-197.629387	-197.622325	-197.621381	-197.659365	25.169	
C	 0.0587903495	 1.5617416888	-0.0194523998	-0.387938
C	-0.015440239	 0.0318230557	 0.0030833151	-0.149106
C	-1.4410323712	-0.5486202833	 0.0502862937	 0.064453
C	-1.4077700736	-2.0723102963	-0.1301201031	-0.385907
C	-2.1840052889	-0.1765975855	 1.3411430253	-0.379515
H	 1.0943563772	 1.9023360681	-0.1190007232	 0.110263
H	-0.5068956631	 1.9721731864	-0.8638809838	 0.111626
H	-0.3440795055	 2.0062808225	 0.8957952222	 0.116928
H	 0.4892675776	-0.3601121367	-0.8895390153	 0.088911
H	 0.5525493766	-0.3513944606	 0.8626988712	 0.089184
H	-2.0003157459	-0.1215368245	-0.7955968405	 0.067691
H	-0.8550113065	-2.5506581045	 0.6877543828	 0.109814
H	-2.4178751337	-2.495436282	-0.1372012715	 0.106915
H	-0.91928762	-2.3536380198	-1.0691401439	 0.107372
H	-3.1910019738	-0.6069955903	 1.3513705072	 0.108307
H	-1.651972936	-0.5601058436	 2.2206348063	 0.10895
H	-2.2879375936	 0.9057513156	 1.4607957173	 0.112053
92.936	212.1026	222.3075	256.1548	262.5491	363.8193	410.0828	453.3515	764.056	797.5792	915.8533	928.262	965.434	984.2222	1025.1258	1047.615	1170.0779	1195.2655	1206.4384	1296.9759	1327.1289	1369.5127	1383.3911	1400.4532	1410.6871	1421.7549	1480.3846	1487.7153	1495.5709	1499.63	1505.144	1508.2608	1513.1008	2989.8361	3007.473	3021.6486	3027.2121	3031.1856	3041.4008	3085.3453	3091.2074	3095.6315	3096.6112	3101.1745	3108.5171
CCC(C)C	CCC(C)C	
InChI=1S/C5H12/c1-4-5(2)3/h5H,4H2,1-3H3	InChI=1S/C5H12/c1-4-5(2)3/h5H,4H2,1-3H3
