13
gdb 2625	19.92583	0.93252	0.90087	2.3283	57.49	-0.2805	0.0045	0.285	1171.636	0.10103	-340.64334	-340.635554	-340.634609	-340.67702	24.92	
N	-0.1272154128	 1.3074149988	 0.0103479815	-0.428625
C	-0.0449990747	 0.0503204452	 0.0027734775	 0.127704
O	-1.1736905442	-0.6937845223	 0.0091284307	-0.184919
C	-0.9962471686	-2.1040618728	-0.0004892094	-0.071021
C	-2.4036718009	-2.7088092191	 0.0101958351	-0.337032
C	-2.3625456238	-4.1677398894	 0.0015958526	 0.247811
N	-2.3077309655	-5.3215127668	-0.0054443484	-0.294327
H	 0.803785864	 1.718741661	 0.0040643732	 0.235721
H	 0.8758442924	-0.5488158607	-0.0089235208	 0.093552
H	-0.451581266	-2.4239267142	-0.8974624702	 0.132942
H	-0.4338123619	-2.4338384331	 0.8818091994	 0.13293
H	-2.9418430079	-2.362680404	 0.8985291724	 0.172628
H	-2.9594572302	-2.3527956125	-0.8632609535	 0.172638
26.1417	66.3718	111.3359	137.055	242.7478	392.1201	398.652	509.7565	651.1815	793.5521	824.8946	947.2785	1010.1517	1043.8203	1070.3368	1089.6703	1147.361	1227.9671	1281.483	1308.7351	1313.7242	1409.8864	1433.2704	1470.9657	1520.1591	1753.7296	2369.4276	3014.1226	3029.8917	3060.0608	3063.3182	3105.2208	3522.6636
N=COCCC#N	[NH][CH]OCCC#N	
InChI=1S/C4H6N2O/c5-2-1-3-7-4-6/h4,6H,1,3H2	InChI=1S/C4H6N2O/c5-2-1-3-7-4-6/h4,6H,1,3H2
