12
gdb 3868	3.91224	3.37521	1.81788	1.8048	51.93	-0.1892	0.0336	0.2228	640.5656	0.092031	-356.705084	-356.698384	-356.69744	-356.735442	24.253	
N	-0.083436484	 1.4794570048	-0.1206356122	-0.622046
C	-0.0571161918	 0.0725783045	-0.0494234459	 0.120208
C	-1.1027264036	-0.8290293395	-0.0015799552	-0.086367
N	-0.5482168795	-2.0720026088	-0.0102203743	-0.203378
N	 0.8027169582	-2.0458786988	-0.0727204849	-0.329756
C	 1.0902740936	-0.7546978291	-0.092268653	 0.371518
O	 2.3595315571	-0.2838751527	-0.1537232742	-0.442789
H	 0.8511698211	 1.8554529201	-0.0156816991	 0.251511
H	-0.6755915812	 1.8944282645	 0.5888017561	 0.241513
H	-2.1697069237	-0.6788187376	 0.0378027439	 0.123813
H	-1.0171266609	-2.9579174773	 0.0321155091	 0.272501
H	 2.9472079646	-1.0485457	-0.1782073602	 0.303271
113.5109	243.6944	255.036	273.417	330.5563	405.341	491.5403	633.1262	649.5073	715.6851	748.8916	769.9562	821.022	936.2257	1067.7792	1113.0218	1153.1909	1251.6387	1306.4012	1353.0456	1463.5518	1492.1821	1582.5461	1652.7611	1664.1865	3262.4728	3524.0353	3610.7455	3705.4994	3806.3157
NC1=CNN=C1O	Nc1c[nH]nc1O	
InChI=1S/C3H5N3O/c4-2-1-5-6-3(2)7/h1H,4H2,(H2,5,6,7)	InChI=1S/C3H5N3O/c4-2-1-5-6-3(2)7/h1H,4H2,(H2,5,6,7)
