15
gdb 2474	5.02546	2.68309	2.41851	3.0894	60.44	-0.2321	-0.0038	0.2283	614.1857	0.127579	-308.528193	-308.522816	-308.521872	-308.557156	21.718	
O	 0.019945053	 0.0527669636	-0.0317277782	-0.33614
C	 0.0172627481	 1.2536555709	-0.0019889835	 0.439343
C	-1.1942743013	 2.2157313068	 0.0159432833	-0.327453
C	-0.4055287255	 3.5389357851	 0.0526201715	-0.019029
C	 0.7007416315	 3.2842686119	-1.0125402327	-0.231128
C	 1.192608395	 2.2204044851	 0.0277981773	-0.117996
C	 0.6902574708	 3.2315181471	 1.1146859184	-0.231123
H	-1.8137696352	 2.088742746	-0.8773411907	 0.122621
H	-1.8224385029	 2.0447654235	 0.895740252	 0.122625
H	-0.9777447292	 4.4656169335	 0.0727827288	 0.071781
H	 0.3999273697	 2.9363693776	-2.0050198864	 0.10377
H	 1.4041734956	 4.1150284341	-1.1005898795	 0.108728
H	 2.1907361998	 1.7883552728	 0.0220047836	 0.081502
H	 1.3925773685	 4.0567275765	 1.2507246618	 0.108728
H	 0.3797680818	 2.8349325556	 2.0856938242	 0.103769
156.1513	393.4234	438.0783	494.3237	586.2283	621.4821	757.2468	809.6311	814.513	855.2172	879.7446	935.7306	948.471	980.0543	1012.3606	1027.9451	1073.3426	1081.7677	1098.3609	1158.7087	1162.0297	1226.3175	1234.1034	1247.2988	1264.5988	1299.3713	1319.9174	1461.6824	1489.0253	1524.5156	1869.8228	3054.2472	3055.1397	3058.5666	3100.9427	3118.7406	3118.7824	3123.3816	3149.2296
O=C1CC2CC1C2	O=C1C[C@@H]2C[C@H]1C2	
InChI=1S/C6H8O/c7-6-3-4-1-5(6)2-4/h4-5H,1-3H2	InChI=1S/C6H8O/c7-6-3-4-1-5(6)2-4/h4-5H,1-3H2/t4-,5+
