12
gdb 601	6.46428	2.88269	2.26314	4.7574	51.08	-0.2776	0.016	0.2936	564.4965	0.09686	-265.401151	-265.395097	-265.394153	-265.430631	21.255	
C	-0.0751612778	 1.5308805623	-0.0620082781	-0.398727
C	-0.0101517448	 0.0300790672	 0.0567311102	 0.014036
N	 1.287342895	-0.6030812904	-0.1804122267	-0.309799
C	 0.7067136513	-0.6628011301	 1.1778415143	-0.189761
C	 1.3942849362	 0.0755656202	 2.2097610759	 0.327669
N	 1.9171053644	 0.6643565979	 3.0563604233	-0.332554
H	 0.8302255714	 1.9910511336	 0.3397587042	 0.152524
H	-0.1713781882	 1.8225214569	-1.1125952052	 0.129546
H	-0.9387948019	 1.9244792301	 0.4831194788	 0.129367
H	-0.8930802582	-0.5023060513	-0.2951329289	 0.101019
H	 1.1848032154	-1.5096586769	-0.6287972064	 0.24577
H	 0.2930101673	-1.6063025595	 1.5235469486	 0.13091
140.9671	178.3303	234.3202	352.8684	403.4005	566.4608	603.7954	774.7883	813.5664	885.411	944.6476	998.7902	1021.3281	1082.9287	1145.1534	1202.7556	1241.9712	1252.8969	1391.6844	1420.9465	1453.0336	1485.5434	1496.7998	2359.4644	3043.9895	3109.8639	3112.8387	3138.4437	3148.5474	3511.1839
CC1NC1C#N	C[C@H]1N[C@H]1C#N	
InChI=1S/C4H6N2/c1-3-4(2-5)6-3/h3-4,6H,1H3	InChI=1S/C4H6N2/c1-3-4(2-5)6-3/h3-4,6H,1H3/t3-,4+/m1/s1
