16
gdb 1284	6.16631	1.45706	1.25058	6.1962	57.97	-0.2479	0.0284	0.2763	945.5531	0.137311	-362.946707	-362.939101	-362.938157	-362.978786	26.832	
C	-0.212217096	 1.4754623458	-0.1718862998	-0.323922
N	-0.3344817022	 0.0183118062	-0.2118633601	-0.292784
H	-1.1870996735	-0.9135686238	-1.4714038206	 0.30308
H	 0.5859165754	-0.4008528038	-0.1101579771	 0.233644
C	-1.2274030456	-0.5344102421	 0.8172823532	-0.156546
C	-1.4524131418	-2.0337185446	 0.5895111842	-0.347876
C	-2.1341038319	-2.3964339759	-0.7372057236	 0.406001
O	-1.8053666951	-1.6250876751	-1.7831498834	-0.374449
O	-2.8933379594	-3.3235248438	-0.839682342	-0.331293
H	 0.5076487897	 1.8021601788	-0.9264900618	 0.133871
H	-1.1806980405	 1.9259508508	-0.409506292	 0.141378
H	 0.1100166304	 1.8577428782	 0.809200207	 0.113324
H	-0.8465016465	-0.3607736936	 1.8361013852	 0.103222
H	-2.1815642352	 0.0005898206	 0.7411191784	 0.128329
H	-0.4866787351	-2.5578478535	 0.6189382086	 0.125292
H	-2.0603942525	-2.4568888741	 1.3912280837	 0.138728
72.0316	125.9236	177.7979	235.198	277.8279	318.6789	370.0393	512.1306	579.1136	704.7586	791.103	824.1082	879.4594	961.561	993.037	1019.1104	1051.5603	1127.6495	1142.7674	1168.6499	1240.9624	1280.6432	1289.3022	1353.9537	1389.803	1457.212	1460.725	1480.8905	1491.6485	1500.3699	1511.8221	1520.2955	1859.8159	2978.5064	2985.8395	3021.9171	3059.5021	3079.6968	3120.1305	3121.7312	3232.8306	3502.4078
C[NH2+]CCC([O-])=O	CNCCC(=O)O	
InChI=1S/C4H9NO2/c1-5-3-2-4(6)7/h5H,2-3H2,1H3,(H,6,7)	InChI=1S/C4H9NO2/c1-5-3-2-4(6)7/h5H,2-3H2,1H3,(H,6,7)
