14
gdb 4472	3.57602	1.85186	1.23758	3.6785	60.34	-0.2118	0.0292	0.241	927.0817	0.107329	-415.896971	-415.889255	-415.888311	-415.928671	28.362	
C	-0.0480754647	 1.5226640718	 0.1287674059	-0.490773
C	 0.0081064293	 0.0384505662	 0.0231233865	 0.268626
C	-0.0318368725	-0.7243522684	-1.093356879	 0.174717
N	-0.1320247175	-0.4346204374	-2.444534685	-0.596297
O	 0.0535207041	-2.0745423918	-0.664210722	-0.232082
C	 0.1356918663	-1.9683876067	 0.6729726274	 0.459375
O	 0.2289443545	-3.1013220061	 1.3720811838	-0.402808
N	 0.1164389586	-0.7760203443	 1.1585298499	-0.392518
H	 0.8503967083	 1.9116150557	 0.6199508809	 0.134858
H	-0.1310358107	 1.9712958453	-0.8632942952	 0.134876
H	-0.9056596594	 1.8371344669	 0.7332550956	 0.134856
H	 0.6727229647	-0.7328383149	-2.9857293686	 0.246868
H	-0.9717326032	-0.8030647996	-2.878802538	 0.246882
H	 0.2227456335	-3.840435176	 0.7524481674	 0.313419
139.9585	194.1437	215.1117	256.9835	258.467	321.3235	342.0098	393.7792	545.0879	627.5403	650.3992	664.1418	739.2005	746.4659	822.0221	972.1808	1022.5624	1052.2876	1069.7266	1209.9854	1218.1113	1259.3422	1340.2569	1413.6953	1434.9739	1479.3238	1488.73	1654.0431	1694.8302	1742.2766	3037.3842	3090.1599	3134.652	3497.135	3563.202	3820.4636
CC1=C(N)OC(O)=N1	Cc1c(N)oc(O)n1	
InChI=1S/C4H6N2O2/c1-2-3(5)8-4(7)6-2/h5H2,1H3,(H,6,7)	InChI=1S/C4H6N2O2/c1-2-3(5)8-4(7)6-2/h5H2,1H3,(H,6,7)
