12
gdb 575	11.47792	2.02229	1.84983	4.3345	50.4	-0.2641	0.0237	0.2878	642.9501	0.097425	-265.396194	-265.390273	-265.389329	-265.425905	20.503	
N	-0.0098446883	-1.0404455288	 0.4331767068	-0.297567
C	-0.0034489674	 0.0724337746	 0.1233768987	 0.264495
C	 0.011523362	 1.483665342	-0.2688600969	-0.370747
C	 1.400893439	 2.0994248958	-0.2066136018	 0.040719
C	 1.5399656422	 3.5393810133	 0.120145957	-0.247196
N	 1.981895379	 2.5077775471	 1.0745239165	-0.298789
H	-0.3901136216	 1.5632190503	-1.2864426073	 0.161387
H	-0.6753038946	 2.0347049438	 0.385037241	 0.147215
H	 2.1181853441	 1.6410353045	-0.883058616	 0.117266
H	 2.3375920175	 4.1257140924	-0.3258934651	 0.131108
H	 0.6331156584	 4.1000216404	 0.3351864885	 0.115515
H	 1.3039127797	 2.4025222746	 1.8258771285	 0.236594
80.2521	159.393	354.7361	374.7067	395.1355	548.9004	787.842	828.2337	904.9123	926.1645	967.2024	977.3269	1053.0843	1129.1341	1149.7933	1180.5202	1243.107	1266.3114	1310.6197	1319.4939	1420.8289	1456.5899	1515.6381	2364.7919	3034.0139	3072.514	3108.8674	3141.8861	3195.8282	3496.9619
N#CCC1CN1	N#CC[C@H]1CN1	
InChI=1S/C4H6N2/c5-2-1-4-3-6-4/h4,6H,1,3H2	InChI=1S/C4H6N2/c5-2-1-4-3-6-4/h4,6H,1,3H2/t4-/m0/s1
