12
gdb 1596	3.94373	2.07761	1.79794	3.8445	52.13	-0.2724	-0.019	0.2534	721.9676	0.090046	-356.698773	-356.691376	-356.690432	-356.730362	26.03	
N	-0.0902933879	 1.3656192916	 0.0710660958	-0.549783
C	 0.0498236203	-0.014641143	 0.0104764915	 0.334618
N	 1.1117168582	-0.7106255452	 0.0663787535	-0.490272
C	-1.2931398709	-0.7511542366	 0.0298124207	-0.029967
O	-1.953483854	-0.6068262556	 1.2704041041	-0.400722
C	-2.1520251777	-0.2834437402	-1.0847498022	 0.2498
N	-2.8102077533	 0.1407426633	-1.9350709104	-0.324013
H	 0.7647491691	 1.8977939156	-0.0085092314	 0.25748
H	-0.8477186316	 1.7608767517	-0.4720883366	 0.272164
H	 1.949626453	-0.1246953062	 0.0901557757	 0.212738
H	-1.0796288747	-1.812935017	-0.101579172	 0.16798
H	-1.9168178807	 0.3254563516	 1.5173665414	 0.299977
67.4267	149.1286	216.5112	234.3437	334.4881	403.1865	431.4659	468.2062	570.1428	604.1547	620.4678	736.9122	853.7019	889.6228	964.5425	1064.3328	1116.0276	1134.3729	1255.2117	1306.3374	1396.3343	1418.3021	1644.7775	1747.7903	2349.4541	3120.9614	3444.2872	3542.123	3649.2505	3791.9669
NC(=N)C(O)C#N	NC(=N)[C@@H](O)C#N	
InChI=1S/C3H5N3O/c4-1-2(7)3(5)6/h2,7H,(H3,5,6)	InChI=1S/C3H5N3O/c4-1-2(7)3(5)6/h2,7H,(H3,5,6)/t2-/m0/s1
