13
gdb 3422	4.77715	2.87497	2.09789	2.9558	53.18	-0.2431	-0.0304	0.2127	615.3188	0.102667	-344.462681	-344.457025	-344.456081	-344.492164	21.312	
O	 0.0388805213	-0.0044963918	 0.0082594052	-0.313365
C	-0.0100466742	 1.196998507	-0.0417784752	 0.417991
C	-1.2749545211	 2.0653963931	-0.1144430468	-0.331345
C	-0.8371075325	 3.3721109522	-0.8163630797	-0.247772
C	 0.6654696922	 3.4367777203	-0.5889759812	 0.057804
O	 1.0247838947	 3.2435669187	 0.7747655627	-0.245432
C	 1.1732546022	 2.1291417454	-0.1294923259	-0.079473
H	-2.0683468765	 1.5267131737	-0.6347237887	 0.132963
H	-1.6192092004	 2.2555501986	 0.9070552438	 0.147062
H	-1.0380652458	 3.3251058279	-1.8922348405	 0.117206
H	-1.3413485986	 4.2601829536	-0.4250772244	 0.121358
H	 1.2929958692	 4.1259138002	-1.1482580965	 0.107906
H	 2.1795650294	 1.7559156412	-0.2876413829	 0.115096
121.4358	244.1809	379.8944	447.5339	537.1883	638.044	673.3706	795.8942	817.8614	840.2241	869.7614	922.7842	983.1921	1025.7223	1058.627	1090.2411	1168.7204	1177.896	1218.836	1246.6531	1282.3709	1314.8449	1333.806	1408.9642	1452.675	1487.1945	1848.1326	3051.3337	3067.1685	3096.3211	3129.6544	3152.1213	3182.9946
O=C1CCC2OC12	O=C1CC[C@H]2O[C@@H]12	
InChI=1S/C5H6O2/c6-3-1-2-4-5(3)7-4/h4-5H,1-2H2	InChI=1S/C5H6O2/c6-3-1-2-4-5(3)7-4/h4-5H,1-2H2/t4-,5+/m1/s1
