17
gdb 2036	4.3198	2.50673	2.2171	1.8126	63.3	-0.2495	0.0875	0.337	689.5641	0.147343	-309.686348	-309.679417	-309.678472	-309.716532	27.007	
C	-0.0323712736	 1.5423538734	 0.0836822909	-0.446555
C	 0.0064385302	 0.0194606094	 0.0133021936	 0.31351
C	-1.3747783855	-0.5856510991	-0.2304250055	-0.447866
C	 1.1072493008	-0.6055559882	-0.9388358905	-0.30583
C	 1.7340621625	-1.270541581	 0.2906346386	 0.038799
O	 2.090358432	-0.2233954745	 1.2042972542	-0.251757
C	 0.734468189	-0.6776964088	 1.1899485534	 0.001863
H	 0.9568736935	 1.938510963	 0.3256971112	 0.132389
H	-0.3507883277	 1.9702590504	-0.8737323588	 0.110182
H	-0.737601267	 1.8840179053	 0.8503991536	 0.108702
H	-1.7835480834	-0.2511673502	-1.1901595735	 0.118114
H	-1.3376196045	-1.6806187011	-0.2449715793	 0.112097
H	-2.0782742288	-0.2853606329	 0.5547559895	 0.11398
H	 0.6842335934	-1.3151069376	-1.6545983514	 0.102039
H	 1.7594380826	 0.0983697569	-1.4619353122	 0.106329
H	 2.2915724923	-2.1971883349	 0.3637715759	 0.101009
H	 0.3176119943	-1.0301656402	 2.1281715901	 0.092994
180.4012	235.3659	260.8221	265.8342	326.1387	370.8945	430.8296	532.993	634.3228	794.1654	831.5399	842.0529	863.9714	917.9597	947.8303	961.2622	979.8135	991.56	1037.1163	1054.9765	1126.9501	1189.6103	1203.7168	1227.3382	1260.6046	1276.8257	1300.2574	1382.9572	1398.8722	1420.1993	1472.6741	1485.9222	1488.4023	1501.8198	1511.1154	3021.2305	3027.2054	3060.763	3084.9616	3089.5239	3094.1195	3117.7299	3121.3196	3164.6418	3187.6433
CC1(C)CC2OC12	CC1(C)C[C@H]2O[C@@H]12	
InChI=1S/C6H10O/c1-6(2)3-4-5(6)7-4/h4-5H,3H2,1-2H3	InChI=1S/C6H10O/c1-6(2)3-4-5(6)7-4/h4-5H,3H2,1-2H3/t4-,5-/m1/s1
