15
gdb 3106	3.87093	2.34632	1.98384	1.5322	53.1	-0.2302	0.0584	0.2886	709.4518	0.12384	-382.743932	-382.736505	-382.735561	-382.775141	27.053	
C	-0.4138780585	 0.9465493269	 0.0442182436	-0.24053
O	 0.6189049655	-0.0241217916	-0.0995314994	-0.258308
C	 1.0234731736	-0.5961846713	 1.1015604018	 0.011063
C	 0.1234930714	-1.6279009111	 1.7776829804	 0.058088
O	-1.1187025514	-1.9154427451	 1.2240648978	-0.425348
C	 1.3341569634	-2.0691246013	 0.9789522493	 0.016968
O	 1.0222431159	-2.664326938	-0.2497704584	-0.433581
H	-0.0735972895	 1.79053341	 0.659789952	 0.110739
H	-0.6437701438	 1.3112727784	-0.9594912964	 0.127108
H	-1.3063490522	 0.5004404123	 0.4930527872	 0.145129
H	 1.6577301392	 0.0324109777	 1.7278416735	 0.090479
H	 0.1442079395	-1.6886729751	 2.8626097907	 0.09986
H	-0.9355852285	-2.5058130482	 0.4763349017	 0.290667
H	 2.2084540782	-2.4956725603	 1.4607453191	 0.103955
H	 0.9313135572	-1.9363721934	-0.8824992831	 0.303711
126.617	164.6658	187.063	236.0086	301.3439	336.388	354.8617	572.5034	618.2836	643.7564	714.6483	750.026	786.6105	934.662	1023.9433	1058.9085	1077.2943	1103.539	1152.2418	1160.129	1182.0114	1218.0302	1252.332	1326.53	1342.4305	1373.289	1400.025	1448.675	1479.1888	1487.8224	1510.9409	3008.1098	3089.5201	3092.4667	3131.1439	3140.862	3156.2129	3692.3684	3723.8782
COC1C(O)C1O	CO[C@H]1[C@@H](O)[C@H]1O	
InChI=1S/C4H8O3/c1-7-4-2(5)3(4)6/h2-6H,1H3	InChI=1S/C4H8O3/c1-7-4-2(5)3(4)6/h2-6H,1H3/t2-,3+,4-
