12
gdb 730	9.10398	3.38084	2.50355	2.2444	51.05	-0.2321	0.028	0.2601	508.6768	0.098771	-265.437885	-265.43239	-265.431446	-265.467001	19.376	
C	-0.0216156106	 1.5393428177	 0.0223545005	-0.506803
C	 0.0019807994	 0.0413374872	-0.0017400456	 0.216153
C	-0.0594297437	-0.7916972355	-1.1010943442	-0.120445
N	-0.0039228129	-2.0638816127	-0.632981957	-0.177127
N	 0.0892327247	-2.1289533798	 0.707199693	-0.224053
C	 0.0925723895	-0.8557602282	 1.0910105178	-0.074123
H	 0.892619141	 1.9526231442	 0.4630835308	 0.130282
H	-0.1134482891	 1.9484987103	-0.9876652943	 0.12152
H	-0.863223913	 1.9220033686	 0.6105033887	 0.130198
H	-0.1361968924	-0.5765220371	-2.1556733987	 0.127442
H	-0.0254210242	-2.9182238362	-1.1624822901	 0.272465
H	 0.1605022214	-0.6169018286	 2.1431345091	 0.104491
67.8455	268.837	317.742	499.123	644.0356	653.9254	696.6497	784.3068	882.2296	951.3643	999.8772	1013.2064	1066.6619	1069.2324	1168.9599	1242.5187	1320.2945	1384.359	1408.4836	1424.1324	1485.6344	1490.0583	1506.1522	1619.7797	3030.0323	3080.1578	3108.1456	3235.8747	3256.1216	3679.8867
CC1=CNN=C1	Cc1c[nH]nc1	
InChI=1S/C4H6N2/c1-4-2-5-6-3-4/h2-3H,1H3,(H,5,6)	InChI=1S/C4H6N2/c1-4-2-5-6-3-4/h2-3H,1H3,(H,5,6)
