19
gdb 3239	7.76369	1.2696	1.25107	0.0735	71.66	-0.266	0.0981	0.3641	1028.8269	0.172256	-273.758273	-273.750869	-273.749925	-273.790113	27.864	
C	-0.1589889952	 1.6255301115	 0.0181382618	-0.232936
C	-0.1856815958	 0.1274018216	-0.2101386255	 0.047948
C	-0.2084876727	-0.821504266	 0.9630080887	-0.255885
C	-1.4284551493	-0.6712422072	 0.0858546562	-0.278006
C	 1.24108378	 2.172011948	 0.2140083718	 0.047948
C	 2.0838143199	 2.552773581	-0.97848566	-0.255885
C	 1.5432756031	 3.6224065336	-0.0597905627	-0.278006
H	-0.6278845111	 2.138752222	-0.8331826613	 0.089669
H	-0.7766490165	 1.8652070523	 0.8950979792	 0.089669
H	 0.3963674693	-0.2004392504	-1.0679050854	 0.081262
H	 0.3617150164	-1.7418425821	 0.9004103565	 0.108335
H	-0.2486507128	-0.3935533172	 1.9599545675	 0.107332
H	-2.2832289838	-0.142509468	 0.4957296132	 0.107574
H	-1.6909393023	-1.4885360412	-0.5769060804	 0.10824
H	 1.7793947121	 1.7235299563	 1.0453383073	 0.081262
H	 3.1471688572	 2.3411823457	-0.9544345811	 0.108335
H	 1.6374169337	 2.4619713283	-1.9639508685	 0.107332
H	 0.735569068	 4.2456442793	-0.4304372627	 0.107574
H	 2.2372803554	 4.1406899103	 0.592787954	 0.10824
76.651	90.7477	155.5659	282.2145	339.2787	406.6116	442.6057	762.061	778.2726	803.7732	806.7025	824.2999	848.862	880.9252	942.4373	948.6054	955.7855	1014.2585	1055.4118	1057.0173	1077.118	1077.296	1121.9603	1139.2523	1145.1287	1194.7344	1197.9702	1200.912	1225.3391	1230.1798	1282.7116	1316.8421	1405.5366	1421.9758	1467.7721	1469.5773	1484.101	1505.1738	1508.9202	3001.3507	3034.7255	3125.6486	3125.6685	3130.1906	3130.4116	3137.2404	3137.7047	3203.2566	3203.3386	3218.6932	3218.6999
C(C1CC1)C1CC1	C(C1CC1)C1CC1	
InChI=1S/C7H12/c1-2-6(1)5-7-3-4-7/h6-7H,1-5H2	InChI=1S/C7H12/c1-2-6(1)5-7-3-4-7/h6-7H,1-5H2
