16
gdb 3549	5.89969	2.64602	2.35388	1.7997	63.12	-0.234	0.0854	0.3195	630.6255	0.138423	-288.571762	-288.566041	-288.565097	-288.60084	22.937	
C	-0.1600020761	 1.4639043091	 0.0398333241	-0.411647
C	 0.0560616233	-0.0447130291	 0.0244582576	 0.013521
C	 0.9248979525	-0.518640106	-1.1442256118	-0.030495
C	 2.1654185073	-0.4408753188	-0.3389609474	-0.050617
C	 1.225545425	-0.5396815762	 0.9271863623	-0.083291
C	 1.2367406943	-2.0497647781	 0.649637966	-0.155181
N	 1.6612315627	-1.7768372193	-0.7654780542	-0.155377
H	 0.7882925435	 1.9999295452	-0.0775752292	 0.118102
H	-0.8226886257	 1.7768215488	-0.7744050155	 0.116316
H	-0.6171558643	 1.7850536264	 0.9817699861	 0.114921
H	-0.8980546183	-0.5672834937	 0.1718157659	 0.064512
H	 0.7823802294	-0.3537616351	-2.2049571606	 0.093797
H	 3.1655171989	-0.0762641567	-0.5316340354	 0.094781
H	 1.3816305918	-0.1130963548	 1.9171309802	 0.070075
H	 2.0474199184	-2.5854643305	 1.1503073156	 0.106273
H	 0.2979264273	-2.6062113612	 0.7622159762	 0.09431
227.3377	245.9522	280.063	441.7387	502.6634	738.5871	753.5635	788.1921	806.0391	829.561	894.138	933.8813	947.9525	968.0581	999.5108	1015.3783	1032.9168	1080.4823	1092.1647	1130.1659	1154.2558	1166.4257	1192.4474	1207.03	1234.1069	1280.1057	1299.493	1332.8965	1379.0145	1413.2797	1494.9543	1500.5578	1511.1191	3016.5549	3027.3675	3028.9374	3093.6514	3097.9611	3098.9146	3124.2211	3191.1598	3207.8429
CC1C2C3C1CN23	C[C@H]1[C@H]2[C@H]3[C@@H]1CN23	
InChI=1S/C6H9N/c1-3-4-2-7-5(3)6(4)7/h3-6H,2H2,1H3	InChI=1S/C6H9N/c1-3-4-2-7-5(3)6(4)7/h3-6H,2H2,1H3/t3-,4-,5+,6-,7?/m1/s1
