14
gdb 4970	3.35473	2.34947	1.39362	1.8012	65.84	-0.2546	-0.0256	0.229	836.4676	0.109614	-378.797227	-378.790516	-378.789572	-378.828069	25.032	
C	-0.0377428545	 1.548278773	-0.024667177	-0.494535
C	-0.0043211756	 0.0476455943	-0.0209420809	 0.160505
C	-0.0968262026	-0.731094704	-1.1637572207	-0.04145
N	-0.0675487534	-2.0731812072	-1.1690072546	-0.267269
C	 0.059272687	-2.6422581389	 0.0223910558	 0.069565
N	 0.1585085581	-2.0188503342	 1.2007777996	-0.348694
C	 0.1258917655	-0.6936378026	 1.1655011046	 0.380072
O	 0.2231274383	-0.0330073451	 2.3320975456	-0.404599
H	 0.8773591219	 1.9668429597	 0.4076368459	 0.142899
H	-0.1441822676	 1.9314896831	-1.0428748957	 0.126412
H	-0.8710756437	 1.928293708	 0.5758642986	 0.142901
H	-0.2004009542	-0.2486814144	-2.1343580752	 0.112127
H	 0.0860397984	-3.7287531741	 0.0514398793	 0.119559
H	 0.3040520622	-0.7096818676	 3.0200387947	 0.302507
134.2096	167.1603	270.219	277.6088	424.0397	458.7845	543.6897	571.2606	612.6487	626.2219	773.3933	813.231	905.7588	955.8691	1006.6121	1018.1825	1070.9223	1122.6641	1185.7086	1252.7521	1312.0585	1349.3137	1358.4848	1418.3083	1438.1342	1477.5887	1481.1348	1507.6488	1619.6655	1646.6607	3036.3081	3091.8374	3118.7619	3145.2182	3167.708	3755.0174
CC1=CN=CN=C1O	Cc1cncnc1O	
InChI=1S/C5H6N2O/c1-4-2-6-3-7-5(4)8/h2-3H,1H3,(H,6,7,8)	InChI=1S/C5H6N2O/c1-4-2-6-3-7-5(4)8/h2-3H,1H3,(H,6,7,8)
