13
gdb 4673	7.54937	1.31376	1.12032	3.4107	64.58	-0.207	-0.0449	0.162	977.5432	0.097301	-394.832761	-394.825817	-394.824873	-394.863832	25.527	
N	 0.032068244	 1.4065329602	 0.1518982866	-0.590125
C	-0.0502270377	 0.0265992461	 0.0538416588	 0.306335
C	-1.1421218409	-0.7952331568	 0.0362993833	-0.207266
N	-0.6186873547	-2.0969434724	 0.000781368	-0.040954
C	-1.3292993972	-3.2926402103	-0.0316813416	 0.178673
O	-0.8166885635	-4.3803580977	-0.0648632853	-0.286274
C	 0.753051182	-1.9659649507	-0.0018002697	 0.042227
N	 1.1235297011	-0.7176690581	 0.028501646	-0.310052
H	 0.9258609615	 1.7542302549	-0.1670413564	 0.258111
H	-0.7372102586	 1.9109976704	-0.2637880685	 0.249583
H	-2.2021353024	-0.6115694387	 0.0531239076	 0.131706
H	-2.4204124762	-3.1212965138	-0.0234036279	 0.102377
H	 1.3945177528	-2.8320040133	-0.029782471	 0.165659
113.1358	202.3357	239.7773	266.3034	336.8248	389.0741	510.8756	611.9109	631.383	643.755	724.0296	758.6168	816.1845	860.2206	987.3394	1032.1573	1032.5676	1097.7748	1210.6394	1257.6967	1295.9859	1372.6425	1438.3983	1442.9987	1541.6033	1627.5972	1670.9223	1824.1644	2981.931	3279.737	3285.3456	3562.3453	3663.9611
NC1=CN(C=O)C=N1	Nc1cn(C=O)cn1	
InChI=1S/C4H5N3O/c5-4-1-7(3-8)2-6-4/h1-3H,5H2	InChI=1S/C4H5N3O/c5-4-1-7(3-8)2-6-4/h1-3H,5H2
