14
gdb 4436	3.49553	1.93406	1.26341	4.1106	62.02	-0.2114	0.0259	0.2372	916.3842	0.107142	-415.883331	-415.875765	-415.87482	-415.914991	27.845	
C	 0.1786328271	 1.5080221655	 0.058618965	-0.493519
C	-0.0128587823	 0.0418772323	 0.0175527499	 0.333551
C	-1.0944164247	-0.7354931973	 0.0399370788	 0.138776
N	-2.44429784	-0.4308682839	 0.111229398	-0.597094
O	-0.6681376697	-2.0806406829	-0.0250238168	-0.240925
C	 0.6972651839	-2.0595738718	-0.0859388177	 0.487706
N	 1.4976608506	-3.0272092711	-0.1549263838	-0.580682
O	 1.1154179988	-0.7594330761	-0.0606830171	-0.233467
H	 0.7812043051	 1.8016489307	 0.9251629225	 0.146312
H	 0.6983708602	 1.862014756	-0.8384890659	 0.146294
H	-0.7955230292	 1.9959160976	 0.1210028617	 0.153649
H	-2.9604533124	-0.7566470979	-0.700462203	 0.254078
H	-2.8866439646	-0.8140405159	 0.9412277989	 0.254074
H	 0.9881692473	-3.9070154452	-0.1618088205	 0.231245
144.1704	163.117	210.3619	250.3107	250.6559	326.5104	358.3458	551.1384	610.0918	636.9003	656.2467	736.8728	777.0316	783.4181	824.1485	934.4746	978.2055	1019.8777	1071.6046	1081.1615	1219.873	1252.3534	1310.5201	1342.27	1422.9802	1473.0591	1489.028	1657.0548	1783.4457	1848.3964	3036.6885	3089.2952	3145.1314	3493.7288	3543.46	3557.9449
CC1=C(N)OC(=N)O1	CC1=C(N)O[C@@H]([NH])O1	
InChI=1S/C4H6N2O2/c1-2-3(5)8-4(6)7-2/h6H,5H2,1H3	InChI=1S/C4H7N2O2/c1-2-3(5)8-4(6)7-2/h4,6H,5H2,1H3/t4-/m0/s1
