13
gdb 3805	7.67748	2.1277	1.68365	1.7856	55.6	-0.2154	0.0304	0.2458	708.4057	0.103681	-340.646768	-340.640444	-340.6395	-340.676948	22.759	
C	 0.0093536492	 1.3967745177	 0.0584680765	-0.230818
O	 0.0111125905	-0.0263909446	 0.0141517005	-0.265487
C	 0.6251953073	-0.6412374775	 1.0392390048	 0.458721
N	 1.200632329	 0.0146897829	 2.0394418861	-0.325117
N	 1.6852835442	-0.9750002784	 2.8323071228	-0.207582
C	 1.4265066266	-2.2123955128	 2.352055937	-0.000062
C	 0.7315491843	-2.0467457175	 1.1748493334	-0.331026
H	 1.030890146	 1.7916253175	 0.0557854725	 0.130348
H	-0.5232522789	 1.7239327848	-0.8357541798	 0.124599
H	-0.5000059117	 1.7616644414	 0.9567091038	 0.130376
H	 2.174880038	-0.7247940774	 3.672572023	 0.273158
H	 1.7488762777	-3.1009772341	 2.8720478342	 0.134176
H	 0.3551373979	-2.8049626319	 0.5100337553	 0.108714
107.4588	179.4964	246.5142	342.0143	397.5173	491.5584	648.6761	700.7642	720.5431	764.1074	830.3882	936.9858	983.9269	1055.8506	1072.1764	1121.7884	1180.7152	1199.6048	1238.8837	1313.6345	1410.5015	1453.5534	1478.2135	1491.7109	1502.2647	1538.6298	1598.4248	3029.6226	3094.3366	3141.219	3257.6354	3287.3313	3694.8474
COC1=NNC=C1	COc1n[nH]cc1	
InChI=1S/C4H6N2O/c1-7-4-2-3-5-6-4/h2-3H,1H3,(H,5,6)	InChI=1S/C4H6N2O/c1-7-4-2-3-5-6-4/h2-3H,1H3,(H,5,6)
