13
gdb 2425	4.61927	3.35452	2.50947	0.5216	53.15	-0.2436	0.0546	0.2982	566.3192	0.100203	-344.338878	-344.333257	-344.332312	-344.367958	21.871	
C	 0.0307883911	 1.4678407542	-0.0959273484	-0.534404
C	 0.0126367054	-0.0209124322	-0.0244456603	 0.425304
O	 0.5467531988	-0.820011643	-1.127226973	-0.347891
C	 0.1100164716	-1.8390845416	-0.1879836563	 0.040747
C	 0.5035516059	-1.0239210294	 1.0800264827	 0.003313
O	-0.8023645448	-1.1445138054	 1.7108333869	-0.326326
C	-1.136814036	-1.0414599502	 0.2982481118	 0.003311
H	 1.0559218799	 1.8380178411	-0.1912757755	 0.139309
H	-0.5468858769	 1.8208589906	-0.9553991726	 0.139312
H	-0.4088553407	 1.8809574543	 0.8169862697	 0.143435
H	 0.2420197139	-2.8897394737	-0.4413886098	 0.105531
H	 1.399461202	-1.0358498164	 1.7002887809	 0.10418
H	-2.1824666301	-1.0741492582	-0.0068156262	 0.10418
212.7734	240.1297	288.5805	529.0205	530.5033	669.967	749.8226	761.9007	777.8336	799.2117	842.2732	879.2496	931.7946	961.2144	1006.2496	1100.7529	1106.9458	1109.8107	1150.2774	1174.8106	1180.6636	1252.8502	1290.8984	1376.6116	1421.8465	1474.9538	1489.659	3041.4943	3115.5418	3120.2191	3124.7749	3125.5515	3145.9906
CC12OC3C1OC23	C[C@@]12O[C@H]3[C@@H]1O[C@@H]23	
InChI=1S/C5H6O2/c1-5-3-2(7-5)4(5)6-3/h2-4H,1H3	InChI=1S/C5H6O2/c1-5-3-2(7-5)4(5)6-3/h2-4H,1H3/t2-,3-,4+,5+
