14
gdb 3051	9.34623	1.25717	1.1802	2.4315	55.7	-0.2553	0.0268	0.2822	960.07	0.1133	-361.711854	-361.704617	-361.703673	-361.744375	24.551	
O	-0.1156205334	 0.3332678888	 0.7063680807	-0.321214
C	 0.0479033584	 1.2823557326	-0.0306576406	 0.155814
N	 1.2301138489	 1.6381965042	-0.6020531202	-0.273151
C	 2.4729038425	 0.9245760991	-0.3645001071	-0.183649
C	 3.5193913346	 1.8328967854	 0.2324296773	 0.087699
C	 4.9283771723	 1.7559774031	-0.1661681951	-0.175783
O	 4.0845843319	 2.793781939	-0.6692480783	-0.242086
H	-0.7702480477	 1.9697018928	-0.3225933995	 0.078141
H	 1.2622777077	 2.4630338629	-1.1807242438	 0.258926
H	 2.2343795274	 0.1039787777	 0.3171018716	 0.15406
H	 2.8526031708	 0.4991572208	-1.301445024	 0.113311
H	 3.2779924235	 2.2380282816	 1.2157073664	 0.10657
H	 5.7027708517	 2.0766877722	 0.5283725096	 0.122899
H	 5.2406451314	 1.0119494499	-0.8979387769	 0.118462
41.2491	68.3438	186.4008	238.811	308.6164	404.8355	497.9842	562.4517	740.4816	816.2397	862.0178	936.8868	976.1765	1029.7944	1035.5049	1099.0992	1139.351	1160.2945	1172.7644	1211.7034	1276.8264	1293.9515	1355.8141	1429.3179	1450.0797	1476.2526	1524.5247	1534.834	1805.9038	2941.9619	3032.655	3086.7815	3107.8586	3119.0138	3174.3563	3633.6387
O=CNCC1CO1	O=CNC[C@H]1CO1	
InChI=1S/C4H7NO2/c6-3-5-1-4-2-7-4/h3-4H,1-2H2,(H,5,6)	InChI=1S/C4H7NO2/c6-3-5-1-4-2-7-4/h3-4H,1-2H2,(H,5,6)/t4-/m0/s1
