13
gdb 3454	4.70617	2.91077	2.79337	2.3816	58.54	-0.2467	0.0032	0.25	562.446	0.103147	-307.303421	-307.298168	-307.297224	-307.332219	20.802	
O	-8.5151*^-6	 0.0149565444	-0.1192208688	-0.299681
C	-0.0148848547	 1.1962488209	-0.0429825693	 0.425712
C	-1.0812669322	 2.36695803	 0.0879110736	-0.176434
C	-0.0237693479	 2.9873241354	 1.0553395841	-0.217244
C	 1.0227621489	 2.3953503324	 0.0586527003	-0.176431
C	 0.6166510948	 3.0770918236	-1.2359911948	-0.084197
C	-0.7298458675	 3.0588246145	-1.2173187592	-0.084197
H	-2.1214935543	 2.2054982095	 0.3589528002	 0.085164
H	-0.0374950747	 4.0777650491	 1.1261143603	 0.108675
H	-0.0036678284	 2.516438436	 2.0432419702	 0.111289
H	 2.0740991329	 2.2621073952	 0.3006048174	 0.085162
H	 1.2863310355	 3.375593676	-2.0294645091	 0.111089
H	-1.4291225074	 3.338771063	-1.9917978449	 0.111093
161.6588	377.1701	446.6788	567.2171	579.1958	689.6667	742.2336	807.3281	814.8516	832.7088	907.0148	940.8306	947.1843	952.7531	1001.6541	1017.7638	1071.7369	1120.6067	1133.7288	1173.9934	1199.9573	1247.225	1252.8968	1334.7002	1480.2803	1586.9382	1920.006	3051.2419	3125.0573	3156.6277	3158.4447	3226.5643	3250.5465
O=C1C2CC1C=C2	O=C1[C@H]2C[C@@H]1C=C2	
InChI=1S/C6H6O/c7-6-4-1-2-5(6)3-4/h1-2,4-5H,3H2	InChI=1S/C6H6O/c7-6-4-1-2-5(6)3-4/h1-2,4-5H,3H2/t4-,5+
