12
gdb 2660	9.86431	0.93469	0.89945	4.0288	58.96	-0.2686	0.0091	0.2777	1201.1335	0.088504	-323.345473	-323.337497	-323.336553	-323.37934	25.811	
O	 0.0338023891	 1.2608108004	 0.6670507179	-0.407272
C	-0.0115127744	 0.1105828289	-0.165060901	-0.212738
C	-1.3591102891	-0.4461196862	-0.1512240804	 0.126451
C	-2.4626106642	-0.9210532162	-0.1496461013	 0.072175
C	-3.810055675	-1.4835715694	-0.1431684397	-0.471555
C	-3.8642381813	-2.8509773838	 0.3919365414	 0.279357
N	-3.9200432261	-3.926857931	 0.8068595788	-0.299567
H	 0.9388628512	 1.5886599665	 0.6559206162	 0.294016
H	 0.2636892402	 0.3539596432	-1.2041749755	 0.122062
H	 0.6922190794	-0.6648671027	 0.1779517435	 0.127375
H	-4.4790006817	-0.8534022549	 0.4569915063	 0.187461
H	-4.2302134381	-1.4957142648	-1.1571036261	 0.182234
19.6627	86.9779	133.6248	214.2063	243.7898	320.2455	373.4525	384.1973	506.2693	584.1241	782.0026	926.0123	934.7428	1026.122	1055.011	1152.3446	1234.0156	1247.5127	1257.7606	1338.1102	1445.6574	1461.4587	1501.7567	2371.2903	2388.7024	2967.4698	2987.9331	3026.7853	3057.4192	3820.0457
OCC#CCC#N	OCC#CCC#N	
InChI=1S/C5H5NO/c6-4-2-1-3-5-7/h7H,2,5H2	InChI=1S/C5H5NO/c6-4-2-1-3-5-7/h7H,2,5H2
