15
gdb 4144	4.912	1.53018	1.31444	1.7673	63.46	-0.2463	0.0064	0.2526	911.2735	0.119038	-399.752684	-399.745817	-399.744872	-399.783859	26.308	
O	-0.1178453558	 1.3561322427	 0.1769755784	-0.39409
N	 0.0431895425	-0.0375995364	 0.0806397592	-0.213742
C	-1.0725046375	-0.620011317	-0.0937318531	 0.395667
C	-2.4412132773	 0.0201103257	-0.2399784813	-0.327052
C	-3.2917271851	-1.0989979177	-0.8047427495	 0.037761
O	-2.7543628061	-1.6479643542	-2.0153657141	-0.255436
C	-2.5361715654	-2.3618705463	-0.793204558	 0.048105
C	-1.1574292215	-2.1333614385	-0.205891482	-0.323456
H	 0.792378767	 1.6598684692	 0.2585519349	 0.307269
H	-2.8222366821	 0.3574721867	 0.7327963345	 0.125783
H	-2.3982189293	 0.8990705218	-0.8893752465	 0.144037
H	-4.3762335043	-1.058206287	-0.7497836621	 0.09796
H	-3.0123837197	-3.3363210669	-0.7262061082	 0.097786
H	-0.3557471134	-2.5446879348	-0.8248499161	 0.137564
H	-1.0872190119	-2.6044985572	 0.7833149139	 0.121843
77.1853	232.5986	275.8012	331.7565	380.1045	388.1132	503.4603	527.9346	678.4983	699.2929	816.8056	837.3428	857.7572	905.6703	911.2538	964.4302	991.2173	1030.9505	1069.9766	1091.9332	1170.17	1205.4732	1208.2047	1260.8968	1289.1595	1299.0306	1339.6237	1404.711	1436.598	1455.2578	1465.3809	1760.4839	3030.3149	3035.7419	3093.9706	3098.1513	3146.9149	3159.1312	3820.3549
ON=C1CC2OC2C1	ON=C1C[C@H]2O[C@H]2C1	
InChI=1S/C5H7NO2/c7-6-3-1-4-5(2-3)8-4/h4-5,7H,1-2H2	InChI=1S/C5H7NO2/c7-6-3-1-4-5(2-3)8-4/h4-5,7H,1-2H2/t4-,5+
