14
gdb 470	7.01872	3.42197	2.53081	1.0448	49.6	-0.2542	0.0896	0.3439	537.0339	0.120277	-307.573371	-307.567272	-307.566327	-307.603679	21.023	
C	 0.0860123473	 1.5658268664	-0.095988831	-0.402054
C	 0.1455041028	 0.0627946865	 0.0502624251	 0.235686
O	 0.646659198	-0.5337353729	-1.1362091568	-0.264378
C	 1.395782913	-1.6842756522	-0.759033093	-0.08721
C	 1.4018306176	-1.6405702901	 0.7857962014	-0.109116
O	 1.038681463	-0.3019404259	 1.0777355952	-0.243498
H	 1.0871313061	 1.9543917034	-0.2970101871	 0.130421
H	-0.5754224864	 1.8316275409	-0.9241529412	 0.129013
H	-0.299541243	 2.0167191363	 0.8219857947	 0.126601
H	-0.8564731139	-0.3563446599	 0.268727055	 0.056277
H	 0.9262576462	-2.5984559508	-1.1429232856	 0.101969
H	 2.4027717902	-1.6037598756	-1.1836184856	 0.110107
H	 0.6684935793	-2.3461811505	 1.204631463	 0.098133
H	 2.3789910198	-1.8419319055	 1.229858676	 0.118049
40.5734	185.4607	214.0154	325.9521	504.3715	698.3156	710.4379	848.9372	870.2836	877.4774	949.0553	1051.296	1072.3252	1112.1646	1136.3211	1161.8408	1177.0374	1225.7395	1248.9753	1342.7081	1374.2858	1393.8128	1397.3365	1438.4494	1484.5549	1486.3536	1516.4615	1532.7278	2907.1773	2990.1437	3022.6833	3054.8359	3061.0008	3107.7386	3134.6538	3140.1553
CC1OCCO1	CC1OCCO1	
InChI=1S/C4H8O2/c1-4-5-2-3-6-4/h4H,2-3H2,1H3	InChI=1S/C4H8O2/c1-4-5-2-3-6-4/h4H,2-3H2,1H3
