17
gdb 2394	5.1557	1.98031	1.76171	1.9371	64.33	-0.2394	0.0717	0.3111	779.4214	0.148148	-309.681554	-309.674444	-309.6735	-309.712606	26.22	
C	-0.026957079	 1.5332421552	-0.0726100408	-0.406042
C	 0.029525246	 0.0231172707	-0.0093215918	-0.052059
C	 1.3467950478	-0.7059449602	-0.1751919604	-0.354037
C	 0.6614156434	-0.6755421537	 1.1571537867	 0.301207
C	 1.152191043	-0.0936767068	 2.4801169246	-0.135834
O	 0.5989318914	-1.2164255906	 3.2019170697	-0.276819
C	 0.1242481144	-1.8371971796	 1.9866589772	-0.136606
H	 0.8709615529	 1.9815122005	 0.3660952336	 0.115799
H	-0.0969128434	 1.8826088634	-1.1083442767	 0.120565
H	-0.8928711935	 1.9261616655	 0.4718127208	 0.120497
H	-0.8380918857	-0.4797798176	-0.4324115919	 0.084869
H	 1.360568644	-1.6421005872	-0.7250564221	 0.11202
H	 2.2446551639	-0.1056653652	-0.2957496797	 0.111006
H	 2.2417998756	-0.0259228367	 2.6007275891	 0.098726
H	 0.6987212567	 0.8569520788	 2.7917217241	 0.099525
H	-0.9668079162	-1.9655252502	 1.9896677121	 0.098327
H	 0.5991873789	-2.8123725965	 1.8120144156	 0.098855
95.0912	177.7818	202.7722	208.3407	338.2651	408.044	439.8806	558.715	777.8684	856.002	865.917	886.7246	911.0668	975.8397	983.3202	1029.4805	1037.1563	1051.3228	1109.1864	1128.7498	1135.6571	1151.8572	1161.2533	1184.3123	1233.6006	1306.3093	1319.243	1377.8357	1414.9143	1440.19	1490.7525	1494.4076	1510.4683	1512.5573	1536.7517	2991.0987	3002.695	3027.3114	3035.1658	3037.1159	3090.3994	3093.8607	3114.738	3126.0233	3199.2081
CC1CC11COC1	C[C@H]1CC21COC2	
InChI=1S/C6H10O/c1-5-2-6(5)3-7-4-6/h5H,2-4H2,1H3	InChI=1S/C6H10O/c1-5-2-6(5)3-7-4-6/h5H,2-4H2,1H3/t5-/m0/s1
