12
gdb 3025	15.14071	1.04619	1.04002	1.1151	74.59	-0.235	-0.0246	0.2103	1073.5113	0.089455	-286.154755	-286.147821	-286.146877	-286.185722	24.778	
C	 0.0508763828	-3.755103179	-0.0378563164	-0.557737
C	 0.0348638536	-2.5474690957	-0.0153317847	 0.301097
C	 0.0174165111	-1.188575013	 0.0089972927	-0.299502
C	 0.004904876	 0.0230983587	 0.040074703	 0.457909
C	-0.0085146709	 1.4534618745	 0.0450229049	-0.205271
C	 0.510242204	 2.1964704345	 1.2372706862	-0.223987
N	 1.2684659424	 2.2108386511	-0.013839026	-0.300922
H	 0.0634132452	-4.8165645923	-0.0566819453	 0.193746
H	-0.8040997969	 1.9123412953	-0.5366311316	 0.126938
H	 0.0456933687	 3.1410448446	 1.504791009	 0.131723
H	 0.8752892581	 1.6054398279	 2.0717213409	 0.130591
H	 2.0438026059	 1.5543797133	 0.0444575174	 0.245414
98.2439	109.4053	244.3692	257.2131	459.9434	483.4744	533.9672	534.9777	592.7357	605.4923	677.5597	807.76	869.204	957.6937	988.9505	1088.6567	1116.1682	1157.0535	1225.0465	1257.685	1296.3772	1392.8119	1504.5272	2180.5215	2352.2797	3117.2527	3139.23	3209.498	3503.6	3504.7039
C#CC#CC1CN1	C#CC#C[C@H]1CN1	
InChI=1S/C6H5N/c1-2-3-4-6-5-7-6/h1,6-7H,5H2	InChI=1S/C6H5N/c1-2-3-4-6-5-7-6/h1,6-7H,5H2/t6-/m0/s1
