14
gdb 1552	4.07281	1.71553	1.28068	3.945	54.67	-0.2769	0.0082	0.2851	907.1759	0.111602	-361.702143	-361.693965	-361.693021	-361.735066	27.285	
C	-0.2508186785	 1.3236179851	 0.604223981	-0.229804
O	-0.2019422013	-0.0844106454	 0.6866652763	-0.227907
C	 1.0591426999	-0.6149096895	 0.3865853843	-0.073337
C	 0.9949102126	-2.1340643509	 0.6056879109	-0.025441
O	 2.1749847706	-2.7766269532	 0.1684737994	-0.407029
C	 0.6960329168	-2.4514642041	 2.0164141492	 0.260629
N	 0.5226609037	-2.70656986	 3.1297821588	-0.31728
H	-0.0157720935	 1.6788039817	-0.4106980865	 0.110855
H	-1.2680338061	 1.6262040556	 0.8604352206	 0.139118
H	 0.4512559559	 1.7939616469	 1.3089782373	 0.114404
H	 1.3438114369	-0.4395475619	-0.6627777461	 0.10945
H	 1.8447340067	-0.1796508125	 1.0281986919	 0.093814
H	 0.1829420401	-2.5314275668	-0.0116158049	 0.15348
H	 2.8886528362	-2.5530431749	 0.7770268178	 0.299048
69.5365	97.7166	155.1097	212.0262	237.1755	246.0066	319.8654	396.0905	418.627	589.1928	610.1414	813.5541	995.8381	1041.7006	1078.4606	1113.1827	1170.1215	1182.6246	1227.1986	1238.3746	1273.7804	1338.4823	1409.1267	1416.2093	1480.9532	1487.4726	1501.5386	1525.9623	2358.7648	2956.672	2981.6235	3005.1243	3030.0962	3078.4784	3127.63	3803.2989
COCC(O)C#N	COC[C@@H](O)C#N	
InChI=1S/C4H7NO2/c1-7-3-4(6)2-5/h4,6H,3H2,1H3	InChI=1S/C4H7NO2/c1-7-3-4(6)2-5/h4,6H,3H2,1H3/t4-/m0/s1
