12
gdb 1004	4.18683	3.45516	1.91599	4.5793	51.5	-0.2148	0.0208	0.2355	624.5552	0.091043	-360.564233	-360.558066	-360.557121	-360.594356	21.876	
C	-0.0339643982	 1.4574327093	 0.0095439296	-0.346326
N	-0.0402906469	 0.0110859542	 0.0011613463	-0.120895
C	-1.1464827605	-0.8386782401	 0.0042515268	-0.125803
C	-0.6715721326	-2.0893228318	-0.0067110361	-0.031792
O	 0.7051435039	-2.0641096847	-0.0165758991	-0.21198
C	 1.1150021384	-0.7438768751	-0.0111058962	 0.490857
O	 2.2620952572	-0.3825937911	-0.0178795822	-0.411449
H	 1.0103514197	 1.7730593147	 0.0025274803	 0.176822
H	-0.5378455398	 1.8597393954	-0.8755314402	 0.138316
H	-0.5226676191	 1.849437303	 0.9076738775	 0.138316
H	-2.1574124569	-0.4689128839	 0.0135981414	 0.149384
H	-1.1422625753	-3.0559649398	-0.0092911581	 0.154551
116.3267	160.5828	256.9541	294.599	525.588	585.0901	662.5567	684.5025	767.2449	779.6462	794.0196	907.3893	1026.9673	1043.3628	1117.2725	1157.9688	1159.0037	1286.5667	1330.7464	1426.0508	1470.5152	1494.5475	1512.8987	1655.6043	1877.5143	3033.2203	3091.3192	3151.0354	3282.1718	3311.7751
CN1C=COC1=O	Cn1ccoc1=O	
InChI=1S/C4H5NO2/c1-5-2-3-7-4(5)6/h2-3H,1H3	InChI=1S/C4H5NO2/c1-5-2-3-7-4(5)6/h2-3H,1H3
