15
gdb 4556	4.04471	1.76448	1.24778	4.644	64.83	-0.2058	0.0275	0.2333	948.555	0.118725	-399.864264	-399.856445	-399.8555	-399.89645	27.788	
C	 0.0042472475	 1.4715909153	 0.0924878876	-0.345042
N	-0.0412936194	 0.0287062185	 0.0255326632	-0.115334
C	-1.1681404606	-0.7954770154	 0.097670862	-0.231198
C	-0.7434415588	-2.0621192809	-0.0072924941	 0.344948
C	-1.4263936143	-3.3763957213	-0.0038068494	-0.485386
O	 0.6340966676	-2.0601773746	-0.1450628676	-0.245912
C	 1.0821773327	-0.7528598563	-0.125337895	 0.476074
O	 2.235561847	-0.4237713041	-0.2244432569	-0.415325
H	 1.0511080694	 1.7650931639	 0.0017977928	 0.174631
H	-0.5682147358	 1.9240190408	-0.7243682683	 0.135718
H	-0.3901478042	 1.8362366773	 1.0470305498	 0.13572
H	-2.1625189036	-0.4001177203	 0.2167617479	 0.144891
H	-1.2450535559	-3.9214943713	-0.9370660958	 0.145346
H	-1.0698020312	-4.0079237578	 0.8177788242	 0.145341
H	-2.5038295604	-3.236334034	 0.1106949998	 0.135529
117.0256	136.208	168.8081	200.9808	257.6664	302.6266	309.985	547.5383	598.8569	604.4074	686.1187	724.2996	765.8244	857.2746	958.9829	1012.8971	1067.6364	1069.3235	1083.9344	1159.1169	1186.1637	1294.2454	1334.4141	1413.4943	1429.1651	1464.0419	1467.5845	1494.1691	1495.198	1514.8615	1724.3741	1875.1183	3030.3909	3031.7914	3082.9686	3086.9475	3127.8483	3150.0576	3281.9615
CN1C=C(C)OC1=O	Cn1cc(C)oc1=O	
InChI=1S/C5H7NO2/c1-4-3-6(2)5(7)8-4/h3H,1-2H3	InChI=1S/C5H7NO2/c1-4-3-6(2)5(7)8-4/h3H,1-2H3
